
OS:Version,
  {c83e842d-9dd5-4ede-8583-3dd7844281cc}, !- Handle
  1.6.0;                                  !- Version Identifier

OS:ClimateZones,
  {00dda828-8d9d-4465-bd4d-0c0c556ea992}, !- Handle
  ,                                       !- Active Institution
  ,                                       !- Active Year
  ASHRAE,                                 !- Climate Zone Institution Name 1
  ANSI/ASHRAE Standard 169,               !- Climate Zone Document Name 1
  2006,                                   !- Climate Zone Document Year 1
  ,                                       !- Climate Zone Value 1
  CEC,                                    !- Climate Zone Institution Name 2
  California Climate Zone Descriptions,   !- Climate Zone Document Name 2
  1995,                                   !- Climate Zone Document Year 2
  ;                                       !- Climate Zone Value 2

OS:LifeCycleCost:Parameters,
  {6a4fbf89-81ad-4d65-b366-afd317fb7f33}, !- Handle
  FEMP,                                   !- Analysis Type
  ,                                       !- Discounting Convention
  ,                                       !- Inflation Approach
  ,                                       !- Real Discount Rate
  ,                                       !- Nominal Discount Rate
  ,                                       !- Inflation
  ,                                       !- Base Date Month
  ,                                       !- Base Date Year
  ,                                       !- Service Date Month
  ,                                       !- Service Date Year
  ,                                       !- Length of Study Period in Years
  ,                                       !- Tax Rate
  ,                                       !- Depreciation Method
  Yes;                                    !- Use NIST Fuel Escalation Rates

OS:YearDescription,
  {6db9d436-efda-4d1c-99cd-5e575aafcf98}; !- Handle

OS:Building,
  {aed50290-79f3-49ec-b232-91325ed1b660}, !- Handle
  Building 1,                             !- Name
  ,                                       !- Building Sector Type
  ,                                       !- North Axis {deg}
  ,                                       !- Nominal Floor to Floor Height {m}
  {db1a76ed-c1a9-4a2e-a330-548b7c7c5290}, !- Space Type Name
  {73008d16-6331-4a31-b4a6-deb43d82d7c2}, !- Default Construction Set Name
  ;                                       !- Default Schedule Set Name

OS:Facility,
  {57faeb43-443e-4961-8221-fe11336fdc41}; !- Handle

OS:SpaceType,
  {34ad7749-2b7f-41a5-ac6a-d27a408f219c}, !- Handle
  DOE Ref 2004 - LrgHotel - Banquet,      !- Name
  ,                                       !- Default Construction Set Name
  {3d5d462f-2047-4728-8c72-a8b5c9571701}, !- Default Schedule Set Name
  {8cec50ea-6d87-4d63-91bc-e864da63a2ff}, !- Group Rendering Name
  {d49acafe-bf03-4c37-bb17-937312f3a1e1}, !- Design Specification Outdoor Air Object Name
  LargeHotel,                             !- Standards Building Type
  Banquet;                                !- Standards Space Type

OS:Rendering:Color,
  {8cec50ea-6d87-4d63-91bc-e864da63a2ff}, !- Handle
  Rendering Color 1,                      !- Name
  230,                                    !- Rendering Red Value
  196,                                    !- Rendering Green Value
  120;                                    !- Rendering Blue Value

OS:DefaultScheduleSet,
  {3d5d462f-2047-4728-8c72-a8b5c9571701}, !- Handle
  DOE Ref 2004 - LrgHotel - Banquet Schedule Set, !- Name
  ,                                       !- Hours of Operation Schedule Name
  {07e2376d-6ff0-4277-add3-022b3e3deeb9}, !- Number of People Schedule Name
  {cbaec504-7e85-4fab-8379-87224f51afd0}, !- People Activity Level Schedule Name
  {5a791ab7-ee79-46b8-9825-baa33bd976c4}, !- Lighting Schedule Name
  {9da8d778-75a5-487d-a89e-4e75077bafab}, !- Electric Equipment Schedule Name
  ,                                       !- Gas Equipment Schedule Name
  ,                                       !- Hot Water Equipment Schedule Name
  {c91885ec-1d40-4a3b-be0b-8d0e840eaabe}, !- Infiltration Schedule Name
  ,                                       !- Steam Equipment Schedule Name
  ;                                       !- Other Equipment Schedule Name

OS:Lights:Definition,
  {c2309456-70d8-4a52-bdb8-f0d82e497607}, !- Handle
  DOE Ref 2004 - LrgHotel - Banquet Lights Definition, !- Name
  Watts/Area,                             !- Design Level Calculation Method
  ,                                       !- Lighting Level {W}
  13.9930835417226,                       !- Watts per Space Floor Area {W/m2}
  ;                                       !- Watts per Person {W/person}

OS:Lights,
  {0a1e862e-52df-487b-8d75-75b14115aa83}, !- Handle
  DOE Ref 2004 - LrgHotel - Banquet Lights, !- Name
  {c2309456-70d8-4a52-bdb8-f0d82e497607}, !- Lights Definition Name
  {34ad7749-2b7f-41a5-ac6a-d27a408f219c}; !- Space or SpaceType Name

OS:Schedule:Ruleset,
  {5a791ab7-ee79-46b8-9825-baa33bd976c4}, ! Handle
  LargeHotel Bldg Light,                  ! Name
  {b11482fa-11c1-408d-b62a-d303ddffb5f3}, ! Schedule Type Limits Name
  {c759d1a9-00dd-46bf-9d48-d4a78199e6c8}, ! Default Day Schedule Name
  {ec47e658-8e23-455b-b109-5dfa3e837012}, ! Summer Design Day Schedule Name
  {aa5be335-5ec8-4081-8f09-2ea2ae876735}; ! Winter Design Day Schedule Name

OS:ScheduleTypeLimits,
  {b11482fa-11c1-408d-b62a-d303ddffb5f3}, ! Handle
  Fraction,                               ! Name
  0,                                      ! Lower Limit Value
  1,                                      ! Upper Limit Value
  CONTINUOUS;                             ! Numeric Type

OS:Schedule:Day,
  {c759d1a9-00dd-46bf-9d48-d4a78199e6c8}, ! Handle
  LargeHotel Bldg Light Default Schedule, ! Name
  {b11482fa-11c1-408d-b62a-d303ddffb5f3}, ! Schedule Type Limits Name
  ,                                       ! Interpolate to Timestep
  1,                                      !- Hour 1
  0,                                      !- Minute 1
  0.2,                                    !- Value Until Time 1
  2,                                      !- Hour 2
  0,                                      !- Minute 2
  0.15,                                   !- Value Until Time 2
  5,                                      !- Hour 3
  0,                                      !- Minute 3
  0.1,                                    !- Value Until Time 3
  6,                                      !- Hour 4
  0,                                      !- Minute 4
  0.2,                                    !- Value Until Time 4
  7,                                      !- Hour 5
  0,                                      !- Minute 5
  0.4,                                    !- Value Until Time 5
  8,                                      !- Hour 6
  0,                                      !- Minute 6
  0.5,                                    !- Value Until Time 6
  10,                                     !- Hour 7
  0,                                      !- Minute 7
  0.4,                                    !- Value Until Time 7
  18,                                     !- Hour 8
  0,                                      !- Minute 8
  0.25,                                   !- Value Until Time 8
  19,                                     !- Hour 9
  0,                                      !- Minute 9
  0.6,                                    !- Value Until Time 9
  20,                                     !- Hour 10
  0,                                      !- Minute 10
  0.8,                                    !- Value Until Time 10
  21,                                     !- Hour 11
  0,                                      !- Minute 11
  0.9,                                    !- Value Until Time 11
  22,                                     !- Hour 12
  0,                                      !- Minute 12
  0.8,                                    !- Value Until Time 12
  23,                                     !- Hour 13
  0,                                      !- Minute 13
  0.6,                                    !- Value Until Time 13
  24,                                     !- Hour 14
  0,                                      !- Minute 14
  0.3;                                    !- Value Until Time 14

OS:Schedule:Day,
  {ec47e658-8e23-455b-b109-5dfa3e837012}, ! Handle
  LargeHotel Bldg Light Summer Design Day, ! Name
  {b11482fa-11c1-408d-b62a-d303ddffb5f3}, ! Schedule Type Limits Name
  ,                                       ! Interpolate to Timestep
  24,                                     ! Hour 1
  0,                                      ! Minute 1
  1;                                      ! Value Until Time 1

OS:Schedule:Day,
  {aa5be335-5ec8-4081-8f09-2ea2ae876735}, ! Handle
  LargeHotel Bldg Light Winter Design Day, ! Name
  {b11482fa-11c1-408d-b62a-d303ddffb5f3}, ! Schedule Type Limits Name
  ,                                       ! Interpolate to Timestep
  24,                                     ! Hour 1
  0,                                      ! Minute 1
  0;                                      ! Value Until Time 1

OS:Schedule:Rule,
  {7bac68d6-7b86-4caa-8572-0a10a9b91d49}, ! Handle
  LargeHotel Bldg Light Rule 1,           ! Name
  {5a791ab7-ee79-46b8-9825-baa33bd976c4}, ! Schedule Ruleset Name
  0,                                      ! Rule Order
  {f0ea7c1c-d455-47cc-b362-f8a537005600}, ! Day Schedule Name
  Yes,                                    ! Apply Sunday
  No,                                     ! Apply Monday
  No,                                     ! Apply Tuesday
  No,                                     ! Apply Wednesday
  No,                                     ! Apply Thursday
  No,                                     ! Apply Friday
  No,                                     ! Apply Saturday
  ,                                       ! Apply Holiday
  DateRange,                              ! Date Specification Type
  1,                                      ! Start Month
  1,                                      ! Start Day
  12,                                     ! End Month
  31;                                     ! End Day

OS:Schedule:Day,
  {f0ea7c1c-d455-47cc-b362-f8a537005600}, ! Handle
  LargeHotel Bldg Light Rule 1 Day Schedule, ! Name
  {b11482fa-11c1-408d-b62a-d303ddffb5f3}, ! Schedule Type Limits Name
  ,                                       ! Interpolate to Timestep
  2,                                      ! Hour 1
  0,                                      ! Minute 1
  0.29999999999999999,                    ! Value Until Time 1
  6,                                      ! Hour 2
  0,                                      ! Minute 2
  0.20000000000000001,                    ! Value Until Time 2
  7,                                      ! Hour 3
  0,                                      ! Minute 3
  0.29999999999999999,                    ! Value Until Time 3
  9,                                      ! Hour 4
  0,                                      ! Minute 4
  0.40000000000000002,                    ! Value Until Time 4
  13,                                     ! Hour 5
  0,                                      ! Minute 5
  0.29999999999999999,                    ! Value Until Time 5
  18,                                     ! Hour 6
  0,                                      ! Minute 6
  0.20000000000000001,                    ! Value Until Time 6
  19,                                     ! Hour 7
  0,                                      ! Minute 7
  0.5,                                    ! Value Until Time 7
  20,                                     ! Hour 8
  0,                                      ! Minute 8
  0.69999999999999996,                    ! Value Until Time 8
  21,                                     ! Hour 9
  0,                                      ! Minute 9
  0.80000000000000004,                    ! Value Until Time 9
  22,                                     ! Hour 10
  0,                                      ! Minute 10
  0.59999999999999998,                    ! Value Until Time 10
  23,                                     ! Hour 11
  0,                                      ! Minute 11
  0.5,                                    ! Value Until Time 11
  24,                                     ! Hour 12
  0,                                      ! Minute 12
  0.29999999999999999;                    ! Value Until Time 12

OS:Schedule:Rule,
  {b120689d-256f-4a93-b4aa-7a5f96a057c8}, ! Handle
  LargeHotel Bldg Light Rule 2,           ! Name
  {5a791ab7-ee79-46b8-9825-baa33bd976c4}, ! Schedule Ruleset Name
  1,                                      ! Rule Order
  {585c94f6-09dc-40a6-a537-a6651d25d9ef}, ! Day Schedule Name
  No,                                     ! Apply Sunday
  No,                                     ! Apply Monday
  No,                                     ! Apply Tuesday
  No,                                     ! Apply Wednesday
  No,                                     ! Apply Thursday
  No,                                     ! Apply Friday
  Yes,                                    ! Apply Saturday
  ,                                       ! Apply Holiday
  DateRange,                              ! Date Specification Type
  1,                                      ! Start Month
  1,                                      ! Start Day
  12,                                     ! End Month
  31;                                     ! End Day

OS:Schedule:Day,
  {585c94f6-09dc-40a6-a537-a6651d25d9ef}, ! Handle
  LargeHotel Bldg Light Rule 2 Day Schedule, ! Name
  {b11482fa-11c1-408d-b62a-d303ddffb5f3}, ! Schedule Type Limits Name
  ,                                       ! Interpolate to Timestep
  2,                                      ! Hour 1
  0,                                      ! Minute 1
  0.20000000000000001,                    ! Value Until Time 1
  6,                                      ! Hour 2
  0,                                      ! Minute 2
  0.10000000000000001,                    ! Value Until Time 2
  8,                                      ! Hour 3
  0,                                      ! Minute 3
  0.29999999999999999,                    ! Value Until Time 3
  10,                                     ! Hour 4
  0,                                      ! Minute 4
  0.40000000000000002,                    ! Value Until Time 4
  11,                                     ! Hour 5
  0,                                      ! Minute 5
  0.29999999999999999,                    ! Value Until Time 5
  18,                                     ! Hour 6
  0,                                      ! Minute 6
  0.25,                                   ! Value Until Time 6
  19,                                     ! Hour 7
  0,                                      ! Minute 7
  0.59999999999999998,                    ! Value Until Time 7
  22,                                     ! Hour 8
  0,                                      ! Minute 8
  0.69999999999999996,                    ! Value Until Time 8
  23,                                     ! Hour 9
  0,                                      ! Minute 9
  0.59999999999999998,                    ! Value Until Time 9
  24,                                     ! Hour 10
  0,                                      ! Minute 10
  0.29999999999999999;                    ! Value Until Time 10

OS:DesignSpecification:OutdoorAir,
  {d49acafe-bf03-4c37-bb17-937312f3a1e1}, !- Handle
  DOE Ref 2004 - LrgHotel - Banquet Ventilation, !- Name
  Sum,                                    !- Outdoor Air Method
  0.009438948864,                         !- Outdoor Air Flow per Person {m3/s-person}
  ,                                       !- Outdoor Air Flow per Floor Area {m3/s-m2}
  ,                                       !- Outdoor Air Flow Rate {m3/s}
  ,                                       !- Outdoor Air Flow Air Changes per Hour {1/hr}
  ;                                       !- Outdoor Air Flow Rate Fraction Schedule Name

OS:People:Definition,
  {21ca4d3a-a25d-45ca-b2aa-fb94fcf2e58c}, !- Handle
  DOE Ref 2004 - LrgHotel - Banquet People Definition, !- Name
  People/Area,                            !- Number of People Calculation Method
  ,                                       !- Number of People {people}
  0.721181997919551,                      !- People per Space Floor Area {person/m2}
  ,                                       !- Space Floor Area per Person {m2/person}
  0.3;                                    !- Fraction Radiant

OS:People,
  {6b510b7f-4c22-4fe5-9191-d44a50422af6}, !- Handle
  DOE Ref 2004 - LrgHotel - Banquet People, !- Name
  {21ca4d3a-a25d-45ca-b2aa-fb94fcf2e58c}, !- People Definition Name
  {34ad7749-2b7f-41a5-ac6a-d27a408f219c}; !- Space or SpaceType Name

OS:Schedule:Ruleset,
  {07e2376d-6ff0-4277-add3-022b3e3deeb9}, ! Handle
  LargeHotel Bldg Occ,                    ! Name
  {b11482fa-11c1-408d-b62a-d303ddffb5f3}, ! Schedule Type Limits Name
  {900c9a53-404c-41b9-aec0-544ad7fbecb0}, ! Default Day Schedule Name
  {96033d32-0d41-426a-aab0-de1b3300442c}, ! Summer Design Day Schedule Name
  {6f50a179-859b-427c-aa4a-2077da91d517}; ! Winter Design Day Schedule Name

OS:Schedule:Day,
  {900c9a53-404c-41b9-aec0-544ad7fbecb0}, ! Handle
  LargeHotel Bldg Occ Default Schedule,   ! Name
  {b11482fa-11c1-408d-b62a-d303ddffb5f3}, ! Schedule Type Limits Name
  ,                                       ! Interpolate to Timestep
  6,                                      !- Hour 1
  0,                                      !- Minute 1
  0.9,                                    !- Value Until Time 1
  7,                                      !- Hour 2
  0,                                      !- Minute 2
  0.7,                                    !- Value Until Time 2
  9,                                      !- Hour 3
  0,                                      !- Minute 3
  0.4,                                    !- Value Until Time 3
  15,                                     !- Hour 4
  0,                                      !- Minute 4
  0.2,                                    !- Value Until Time 4
  16,                                     !- Hour 5
  0,                                      !- Minute 5
  0.3,                                    !- Value Until Time 5
  19,                                     !- Hour 6
  0,                                      !- Minute 6
  0.5,                                    !- Value Until Time 6
  21,                                     !- Hour 7
  0,                                      !- Minute 7
  0.7,                                    !- Value Until Time 7
  22,                                     !- Hour 8
  0,                                      !- Minute 8
  0.8,                                    !- Value Until Time 8
  24,                                     !- Hour 9
  0,                                      !- Minute 9
  0.9;                                    !- Value Until Time 9

OS:Schedule:Day,
  {96033d32-0d41-426a-aab0-de1b3300442c}, ! Handle
  LargeHotel Bldg Occ Summer Design Day,  ! Name
  {b11482fa-11c1-408d-b62a-d303ddffb5f3}, ! Schedule Type Limits Name
  ,                                       ! Interpolate to Timestep
  24,                                     ! Hour 1
  0,                                      ! Minute 1
  1;                                      ! Value Until Time 1

OS:Schedule:Day,
  {6f50a179-859b-427c-aa4a-2077da91d517}, ! Handle
  LargeHotel Bldg Occ Winter Design Day,  ! Name
  {b11482fa-11c1-408d-b62a-d303ddffb5f3}, ! Schedule Type Limits Name
  ,                                       ! Interpolate to Timestep
  24,                                     ! Hour 1
  0,                                      ! Minute 1
  0;                                      ! Value Until Time 1

OS:Schedule:Rule,
  {5e596c0f-6b57-43c4-9a92-dc4629ee301c}, ! Handle
  LargeHotel Bldg Occ Rule 1,             ! Name
  {07e2376d-6ff0-4277-add3-022b3e3deeb9}, ! Schedule Ruleset Name
  0,                                      ! Rule Order
  {5b1e5ad0-f6ea-454f-82e7-c43bd64c24c7}, ! Day Schedule Name
  Yes,                                    ! Apply Sunday
  No,                                     ! Apply Monday
  No,                                     ! Apply Tuesday
  No,                                     ! Apply Wednesday
  No,                                     ! Apply Thursday
  No,                                     ! Apply Friday
  No,                                     ! Apply Saturday
  ,                                       ! Apply Holiday
  DateRange,                              ! Date Specification Type
  1,                                      ! Start Month
  1,                                      ! Start Day
  12,                                     ! End Month
  31;                                     ! End Day

OS:Schedule:Day,
  {5b1e5ad0-f6ea-454f-82e7-c43bd64c24c7}, ! Handle
  LargeHotel Bldg Occ Rule 1 Day Schedule, ! Name
  {b11482fa-11c1-408d-b62a-d303ddffb5f3}, ! Schedule Type Limits Name
  ,                                       ! Interpolate to Timestep
  8,                                      ! Hour 1
  0,                                      ! Minute 1
  0.69999999999999996,                    ! Value Until Time 1
  11,                                     ! Hour 2
  0,                                      ! Minute 2
  0.5,                                    ! Value Until Time 2
  13,                                     ! Hour 3
  0,                                      ! Minute 3
  0.29999999999999999,                    ! Value Until Time 3
  16,                                     ! Hour 4
  0,                                      ! Minute 4
  0.20000000000000001,                    ! Value Until Time 4
  17,                                     ! Hour 5
  0,                                      ! Minute 5
  0.29999999999999999,                    ! Value Until Time 5
  19,                                     ! Hour 6
  0,                                      ! Minute 6
  0.40000000000000002,                    ! Value Until Time 6
  21,                                     ! Hour 7
  0,                                      ! Minute 7
  0.59999999999999998,                    ! Value Until Time 7
  24,                                     ! Hour 8
  0,                                      ! Minute 8
  0.80000000000000004;                    ! Value Until Time 8

OS:Schedule:Rule,
  {d7926880-ec2d-41b6-80a0-275cd755a3de}, ! Handle
  LargeHotel Bldg Occ Rule 2,             ! Name
  {07e2376d-6ff0-4277-add3-022b3e3deeb9}, ! Schedule Ruleset Name
  1,                                      ! Rule Order
  {eaeb86c4-5e33-4b8f-8e69-da2e0c30c6ed}, ! Day Schedule Name
  No,                                     ! Apply Sunday
  No,                                     ! Apply Monday
  No,                                     ! Apply Tuesday
  No,                                     ! Apply Wednesday
  No,                                     ! Apply Thursday
  No,                                     ! Apply Friday
  Yes,                                    ! Apply Saturday
  ,                                       ! Apply Holiday
  DateRange,                              ! Date Specification Type
  1,                                      ! Start Month
  1,                                      ! Start Day
  12,                                     ! End Month
  31;                                     ! End Day

OS:Schedule:Day,
  {eaeb86c4-5e33-4b8f-8e69-da2e0c30c6ed}, ! Handle
  LargeHotel Bldg Occ Rule 2 Day Schedule, ! Name
  {b11482fa-11c1-408d-b62a-d303ddffb5f3}, ! Schedule Type Limits Name
  ,                                       ! Interpolate to Timestep
  6,                                      ! Hour 1
  0,                                      ! Minute 1
  0.90000000000000002,                    ! Value Until Time 1
  7,                                      ! Hour 2
  0,                                      ! Minute 2
  0.69999999999999996,                    ! Value Until Time 2
  9,                                      ! Hour 3
  0,                                      ! Minute 3
  0.5,                                    ! Value Until Time 3
  17,                                     ! Hour 4
  0,                                      ! Minute 4
  0.29999999999999999,                    ! Value Until Time 4
  18,                                     ! Hour 5
  0,                                      ! Minute 5
  0.5,                                    ! Value Until Time 5
  21,                                     ! Hour 6
  0,                                      ! Minute 6
  0.59999999999999998,                    ! Value Until Time 6
  24,                                     ! Hour 7
  0,                                      ! Minute 7
  0.69999999999999996;                    ! Value Until Time 7

OS:Schedule:Ruleset,
  {cbaec504-7e85-4fab-8379-87224f51afd0}, ! Handle
  LargeHotel Activity,                    ! Name
  {7cc54f72-94ed-48b5-b574-a680f0144fc8}, ! Schedule Type Limits Name
  {d09fefac-54ac-4f35-a991-c80299729df3}, ! Default Day Schedule Name
  {a4cd8a17-27c4-4caf-99cf-0434dafc4289}, ! Summer Design Day Schedule Name
  {8593a8d5-61c0-409a-84d0-3a12b28f673d}; ! Winter Design Day Schedule Name

OS:ScheduleTypeLimits,
  {7cc54f72-94ed-48b5-b574-a680f0144fc8}, !- Handle
  ActivityLevel 3,                        !- Name
  0,                                      !- Lower Limit Value {BasedOnField A4}
  ,                                       !- Upper Limit Value {BasedOnField A4}
  Continuous,                             !- Numeric Type
  ActivityLevel;                          !- Unit Type

OS:Schedule:Day,
  {d09fefac-54ac-4f35-a991-c80299729df3}, ! Handle
  LargeHotel Activity Default Schedule,   ! Name
  {7cc54f72-94ed-48b5-b574-a680f0144fc8}, ! Schedule Type Limits Name
  ,                                       ! Interpolate to Timestep
  24,                                     !- Hour 1
  0,                                      !- Minute 1
  120;                                    !- Value Until Time 1

OS:Schedule:Day,
  {a4cd8a17-27c4-4caf-99cf-0434dafc4289}, ! Handle
  LargeHotel Activity Summer Design Day,  ! Name
  {7cc54f72-94ed-48b5-b574-a680f0144fc8}, ! Schedule Type Limits Name
  ,                                       ! Interpolate to Timestep
  24,                                     ! Hour 1
  0,                                      ! Minute 1
  120;                                    ! Value Until Time 1

OS:Schedule:Day,
  {8593a8d5-61c0-409a-84d0-3a12b28f673d}, ! Handle
  LargeHotel Activity Winter Design Day,  ! Name
  {7cc54f72-94ed-48b5-b574-a680f0144fc8}, ! Schedule Type Limits Name
  ,                                       ! Interpolate to Timestep
  24,                                     ! Hour 1
  0,                                      ! Minute 1
  120;                                    ! Value Until Time 1

OS:SpaceInfiltration:DesignFlowRate,
  {5ad5e306-23de-472e-b3c5-43ed30215a65}, !- Handle
  DOE Ref 2004 - LrgHotel - Banquet Infiltration, !- Name
  {34ad7749-2b7f-41a5-ac6a-d27a408f219c}, !- Space or SpaceType Name
  ,                                       !- Schedule Name
  Flow/ExteriorArea,                      !- Design Flow Rate Calculation Method
  ,                                       !- Design Flow Rate {m3/s}
  ,                                       !- Flow per Space Floor Area {m3/s-m2}
  0.00030226,                             !- Flow per Exterior Surface Area {m3/s-m2}
  ,                                       !- Air Changes per Hour {1/hr}
  ,                                       !- Constant Term Coefficient
  ,                                       !- Temperature Term Coefficient
  ,                                       !- Velocity Term Coefficient
  ;                                       !- Velocity Squared Term Coefficient

OS:Schedule:Ruleset,
  {c91885ec-1d40-4a3b-be0b-8d0e840eaabe}, ! Handle
  LargeHotel Infil Quarter On,            ! Name
  {b11482fa-11c1-408d-b62a-d303ddffb5f3}, ! Schedule Type Limits Name
  {2bf2a219-c505-4c2c-bec7-e53c6acf39cc}, ! Default Day Schedule Name
  {ad1c7ac2-4a98-470f-a157-8a16c04ff797}, ! Summer Design Day Schedule Name
  {c02ac375-7abe-4720-b216-5d0df93b0189}; ! Winter Design Day Schedule Name

OS:Schedule:Day,
  {2bf2a219-c505-4c2c-bec7-e53c6acf39cc}, ! Handle
  LargeHotel Infil Quarter On Default Schedule, ! Name
  {b11482fa-11c1-408d-b62a-d303ddffb5f3}, ! Schedule Type Limits Name
  ,                                       ! Interpolate to Timestep
  24,                                     !- Hour 1
  0,                                      !- Minute 1
  0.25;                                   !- Value Until Time 1

OS:Schedule:Day,
  {ad1c7ac2-4a98-470f-a157-8a16c04ff797}, ! Handle
  LargeHotel Infil Quarter On Summer Design Day, ! Name
  {b11482fa-11c1-408d-b62a-d303ddffb5f3}, ! Schedule Type Limits Name
  ,                                       ! Interpolate to Timestep
  24,                                     ! Hour 1
  0,                                      ! Minute 1
  0.25;                                   ! Value Until Time 1

OS:Schedule:Day,
  {c02ac375-7abe-4720-b216-5d0df93b0189}, ! Handle
  LargeHotel Infil Quarter On Winter Design Day, ! Name
  {b11482fa-11c1-408d-b62a-d303ddffb5f3}, ! Schedule Type Limits Name
  ,                                       ! Interpolate to Timestep
  24,                                     ! Hour 1
  0,                                      ! Minute 1
  0.25;                                   ! Value Until Time 1

OS:ElectricEquipment:Definition,
  {2be41bf9-8cc2-42aa-a349-16fee7355468}, !- Handle