
OS:Version,
  {c83e842d-9dd5-4ede-8583-3dd7844281cc}, !- Handle
  1.6.0;                                  !- Version Identifier

OS:ClimateZones,
  {00dda828-8d9d-4465-bd4d-0c0c556ea992}, !- Handle
  ,                                       !- Active Institution
  ,                                       !- Active Year
  ASHRAE,                                 !- Climate Zone Institution Name 1
  ANSI/ASHRAE Standard 169,               !- Climate Zone Document Name 1
  2006,                                   !- Climate Zone Document Year 1
  ,                                       !- Climate Zone Value 1
  CEC,                                    !- Climate Zone Institution Name 2
  California Climate Zone Descriptions,   !- Climate Zone Document Name 2
  1995,                                   !- Climate Zone Document Year 2
  ;                                       !- Climate Zone Value 2

OS:LifeCycleCost:Parameters,
  {6a4fbf89-81ad-4d65-b366-afd317fb7f33}, !- Handle
  FEMP,                                   !- Analysis Type
  ,                                       !- Discounting Convention
  ,                                       !- Inflation Approach
  ,                                       !- Real Discount Rate
  ,                                       !- Nominal Discount Rate
  ,                                       !- Inflation
  ,                                       !- Base Date Month
  ,                                       !- Base Date Year
  ,                                       !- Service Date Month
  ,                                       !- Service Date Year
  ,                                       !- Length of Study Period in Years
  ,                                       !- Tax Rate
  ,                                       !- Depreciation Method
  Yes;                                    !- Use NIST Fuel Escalation Rates

OS:YearDescription,
  {6db9d436-efda-4d1c-99cd-5e575aafcf98}; !- Handle

OS:Building,
  {aed50290-79f3-49ec-b232-91325ed1b660}, !- Handle
  Building 1,                             !- Name
  ,                                       !- Building Sector Type
  ,                                       !- North Axis {deg}
  ,                                       !- Nominal Floor to Floor Height {m}
  {1acb29ba-52da-477f-88fc-c8add14b22df}, !- Space Type Name
  {963dd0d0-8044-4055-8bb7-3fbcb30e477f}, !- Default Construction Set Name
  ;                                       !- Default Schedule Set Name

OS:Facility,
  {57faeb43-443e-4961-8221-fe11336fdc41}; !- Handle

OS:SpaceType,
  {1340ecfe-d2e1-4365-adbb-2287d82fef14}, !- Handle
  DOE Ref 2004 - LrgHotel - Banquet,      !- Name
  ,                                       !- Default Construction Set Name
  {c74babae-c5b9-455b-abf4-25ae4691aa41}, !- Default Schedule Set Name
  {43a800bb-5eb6-4561-bac7-8cc05cf4ecf0}, !- Group Rendering Name
  {f8c7bbe5-a7c0-49b1-a93d-0f4ef2aea873}, !- Design Specification Outdoor Air Object Name
  LargeHotel,                             !- Standards Building Type
  Banquet;                                !- Standards Space Type

OS:Rendering:Color,
  {43a800bb-5eb6-4561-bac7-8cc05cf4ecf0}, !- Handle
  Rendering Color 1,                      !- Name
  230,                                    !- Rendering Red Value
  196,                                    !- Rendering Green Value
  120;                                    !- Rendering Blue Value

OS:DefaultScheduleSet,
  {c74babae-c5b9-455b-abf4-25ae4691aa41}, !- Handle
  DOE Ref 2004 - LrgHotel - Banquet Schedule Set, !- Name
  ,                                       !- Hours of Operation Schedule Name
  {fbb4964a-4e23-4fa5-81ad-fb69f00e7d1f}, !- Number of People Schedule Name
  {ebfb977e-e87b-470b-b78d-8a0d45f6eba8}, !- People Activity Level Schedule Name
  {ba6b4181-a2cf-4dac-99a2-37798f36dd9d}, !- Lighting Schedule Name
  {c85d0d0c-1ac4-45d1-857c-61bafcb68c54}, !- Electric Equipment Schedule Name
  ,                                       !- Gas Equipment Schedule Name
  ,                                       !- Hot Water Equipment Schedule Name
  {79f5a52a-f255-4f0b-9c80-fcade7d8af1f}, !- Infiltration Schedule Name
  ,                                       !- Steam Equipment Schedule Name
  ;                                       !- Other Equipment Schedule Name

OS:Lights:Definition,
  {cd559016-a0c1-4c03-bdc2-3eef8f86bda9}, !- Handle
  DOE Ref 2004 - LrgHotel - Banquet Lights Definition, !- Name
  Watts/Area,                             !- Design Level Calculation Method
  ,                                       !- Lighting Level {W}
  13.9930835417226,                       !- Watts per Space Floor Area {W/m2}
  ;                                       !- Watts per Person {W/person}

OS:Lights,
  {e00cbcd4-68cf-4e71-9561-2f64f0bd8ee3}, !- Handle
  DOE Ref 2004 - LrgHotel - Banquet Lights, !- Name
  {cd559016-a0c1-4c03-bdc2-3eef8f86bda9}, !- Lights Definition Name
  {1340ecfe-d2e1-4365-adbb-2287d82fef14}; !- Space or SpaceType Name

OS:Schedule:Ruleset,
  {ba6b4181-a2cf-4dac-99a2-37798f36dd9d}, ! Handle
  LargeHotel Bldg Light,                  ! Name
  {9035dcda-5359-40b5-af2d-b5ad50a63b48}, ! Schedule Type Limits Name
  {48bb395a-c1d3-4d24-bce1-00a933160946}, ! Default Day Schedule Name
  {95cd0f32-8327-4193-8af3-d84932df13a4}, ! Summer Design Day Schedule Name
  {e30ac86f-2175-45a8-a8b7-9bc1b0b00425}; ! Winter Design Day Schedule Name

OS:ScheduleTypeLimits,
  {9035dcda-5359-40b5-af2d-b5ad50a63b48}, ! Handle
  Fraction,                               ! Name
  0,                                      ! Lower Limit Value
  1,                                      ! Upper Limit Value
  CONTINUOUS;                             ! Numeric Type

OS:Schedule:Day,
  {48bb395a-c1d3-4d24-bce1-00a933160946}, ! Handle
  LargeHotel Bldg Light Default Schedule, ! Name
  {9035dcda-5359-40b5-af2d-b5ad50a63b48}, ! Schedule Type Limits Name
  ,                                       ! Interpolate to Timestep
  1,                                      !- Hour 1
  0,                                      !- Minute 1
  0.2,                                    !- Value Until Time 1
  2,                                      !- Hour 2
  0,                                      !- Minute 2
  0.15,                                   !- Value Until Time 2
  5,                                      !- Hour 3
  0,                                      !- Minute 3
  0.1,                                    !- Value Until Time 3
  6,                                      !- Hour 4
  0,                                      !- Minute 4
  0.2,                                    !- Value Until Time 4
  7,                                      !- Hour 5
  0,                                      !- Minute 5
  0.4,                                    !- Value Until Time 5
  8,                                      !- Hour 6
  0,                                      !- Minute 6
  0.5,                                    !- Value Until Time 6
  10,                                     !- Hour 7
  0,                                      !- Minute 7
  0.4,                                    !- Value Until Time 7
  18,                                     !- Hour 8
  0,                                      !- Minute 8
  0.25,                                   !- Value Until Time 8
  19,                                     !- Hour 9
  0,                                      !- Minute 9
  0.6,                                    !- Value Until Time 9
  20,                                     !- Hour 10
  0,                                      !- Minute 10
  0.8,                                    !- Value Until Time 10
  21,                                     !- Hour 11
  0,                                      !- Minute 11
  0.9,                                    !- Value Until Time 11
  22,                                     !- Hour 12
  0,                                      !- Minute 12
  0.8,                                    !- Value Until Time 12
  23,                                     !- Hour 13
  0,                                      !- Minute 13
  0.6,                                    !- Value Until Time 13
  24,                                     !- Hour 14
  0,                                      !- Minute 14
  0.3;                                    !- Value Until Time 14

OS:Schedule:Day,
  {95cd0f32-8327-4193-8af3-d84932df13a4}, ! Handle
  LargeHotel Bldg Light Summer Design Day, ! Name
  {9035dcda-5359-40b5-af2d-b5ad50a63b48}, ! Schedule Type Limits Name
  ,                                       ! Interpolate to Timestep
  24,                                     ! Hour 1
  0,                                      ! Minute 1
  1;                                      ! Value Until Time 1

OS:Schedule:Day,
  {e30ac86f-2175-45a8-a8b7-9bc1b0b00425}, ! Handle
  LargeHotel Bldg Light Winter Design Day, ! Name
  {9035dcda-5359-40b5-af2d-b5ad50a63b48}, ! Schedule Type Limits Name
  ,                                       ! Interpolate to Timestep
  24,                                     ! Hour 1
  0,                                      ! Minute 1
  0;                                      ! Value Until Time 1

OS:Schedule:Rule,
  {28a1bf18-205d-46f1-a8ac-eeca5aadad83}, ! Handle
  LargeHotel Bldg Light Rule 1,           ! Name
  {ba6b4181-a2cf-4dac-99a2-37798f36dd9d}, ! Schedule Ruleset Name
  0,                                      ! Rule Order
  {21470f2a-3dcc-41ac-9bc1-c802ef7bbcc3}, ! Day Schedule Name
  Yes,                                    ! Apply Sunday
  No,                                     ! Apply Monday
  No,                                     ! Apply Tuesday
  No,                                     ! Apply Wednesday
  No,                                     ! Apply Thursday
  No,                                     ! Apply Friday
  No,                                     ! Apply Saturday
  ,                                       ! Apply Holiday
  DateRange,                              ! Date Specification Type
  1,                                      ! Start Month
  1,                                      ! Start Day
  12,                                     ! End Month
  31;                                     ! End Day

OS:Schedule:Day,
  {21470f2a-3dcc-41ac-9bc1-c802ef7bbcc3}, ! Handle
  LargeHotel Bldg Light Rule 1 Day Schedule, ! Name
  {9035dcda-5359-40b5-af2d-b5ad50a63b48}, ! Schedule Type Limits Name
  ,                                       ! Interpolate to Timestep
  2,                                      ! Hour 1
  0,                                      ! Minute 1
  0.29999999999999999,                    ! Value Until Time 1
  6,                                      ! Hour 2
  0,                                      ! Minute 2
  0.20000000000000001,                    ! Value Until Time 2
  7,                                      ! Hour 3
  0,                                      ! Minute 3
  0.29999999999999999,                    ! Value Until Time 3
  9,                                      ! Hour 4
  0,                                      ! Minute 4
  0.40000000000000002,                    ! Value Until Time 4
  13,                                     ! Hour 5
  0,                                      ! Minute 5
  0.29999999999999999,                    ! Value Until Time 5
  18,                                     ! Hour 6
  0,                                      ! Minute 6
  0.20000000000000001,                    ! Value Until Time 6
  19,                                     ! Hour 7
  0,                                      ! Minute 7
  0.5,                                    ! Value Until Time 7
  20,                                     ! Hour 8
  0,                                      ! Minute 8
  0.69999999999999996,                    ! Value Until Time 8
  21,                                     ! Hour 9
  0,                                      ! Minute 9
  0.80000000000000004,                    ! Value Until Time 9
  22,                                     ! Hour 10
  0,                                      ! Minute 10
  0.59999999999999998,                    ! Value Until Time 10
  23,                                     ! Hour 11
  0,                                      ! Minute 11
  0.5,                                    ! Value Until Time 11
  24,                                     ! Hour 12
  0,                                      ! Minute 12
  0.29999999999999999;                    ! Value Until Time 12

OS:Schedule:Rule,
  {2fb85b75-2442-4483-b71c-87a7a2cb85b8}, ! Handle
  LargeHotel Bldg Light Rule 2,           ! Name
  {ba6b4181-a2cf-4dac-99a2-37798f36dd9d}, ! Schedule Ruleset Name
  1,                                      ! Rule Order
  {7ea7212b-5d6a-4acf-bc44-e3b26e988da0}, ! Day Schedule Name
  No,                                     ! Apply Sunday
  No,                                     ! Apply Monday
  No,                                     ! Apply Tuesday
  No,                                     ! Apply Wednesday
  No,                                     ! Apply Thursday
  No,                                     ! Apply Friday
  Yes,                                    ! Apply Saturday
  ,                                       ! Apply Holiday
  DateRange,                              ! Date Specification Type
  1,                                      ! Start Month
  1,                                      ! Start Day
  12,                                     ! End Month
  31;                                     ! End Day

OS:Schedule:Day,
  {7ea7212b-5d6a-4acf-bc44-e3b26e988da0}, ! Handle
  LargeHotel Bldg Light Rule 2 Day Schedule, ! Name
  {9035dcda-5359-40b5-af2d-b5ad50a63b48}, ! Schedule Type Limits Name
  ,                                       ! Interpolate to Timestep
  2,                                      ! Hour 1
  0,                                      ! Minute 1
  0.20000000000000001,                    ! Value Until Time 1
  6,                                      ! Hour 2
  0,                                      ! Minute 2
  0.10000000000000001,                    ! Value Until Time 2
  8,                                      ! Hour 3
  0,                                      ! Minute 3
  0.29999999999999999,                    ! Value Until Time 3
  10,                                     ! Hour 4
  0,                                      ! Minute 4
  0.40000000000000002,                    ! Value Until Time 4
  11,                                     ! Hour 5
  0,                                      ! Minute 5
  0.29999999999999999,                    ! Value Until Time 5
  18,                                     ! Hour 6
  0,                                      ! Minute 6
  0.25,                                   ! Value Until Time 6
  19,                                     ! Hour 7
  0,                                      ! Minute 7
  0.59999999999999998,                    ! Value Until Time 7
  22,                                     ! Hour 8
  0,                                      ! Minute 8
  0.69999999999999996,                    ! Value Until Time 8
  23,                                     ! Hour 9
  0,                                      ! Minute 9
  0.59999999999999998,                    ! Value Until Time 9
  24,                                     ! Hour 10
  0,                                      ! Minute 10
  0.29999999999999999;                    ! Value Until Time 10

OS:DesignSpecification:OutdoorAir,
  {f8c7bbe5-a7c0-49b1-a93d-0f4ef2aea873}, !- Handle
  DOE Ref 2004 - LrgHotel - Banquet Ventilation, !- Name
  Sum,                                    !- Outdoor Air Method
  0.009438948864,                         !- Outdoor Air Flow per Person {m3/s-person}
  ,                                       !- Outdoor Air Flow per Floor Area {m3/s-m2}
  ,                                       !- Outdoor Air Flow Rate {m3/s}
  ,                                       !- Outdoor Air Flow Air Changes per Hour {1/hr}
  ;                                       !- Outdoor Air Flow Rate Fraction Schedule Name

OS:People:Definition,
  {b1163739-4682-4773-a245-ff9e8a995b8a}, !- Handle
  DOE Ref 2004 - LrgHotel - Banquet People Definition, !- Name
  People/Area,                            !- Number of People Calculation Method
  ,                                       !- Number of People {people}
  0.721181997919551,                      !- People per Space Floor Area {person/m2}
  ,                                       !- Space Floor Area per Person {m2/person}
  0.3;                                    !- Fraction Radiant

OS:People,
  {787fd8dc-e3e0-4c29-9106-36fd906ee03d}, !- Handle
  DOE Ref 2004 - LrgHotel - Banquet People, !- Name
  {b1163739-4682-4773-a245-ff9e8a995b8a}, !- People Definition Name
  {1340ecfe-d2e1-4365-adbb-2287d82fef14}; !- Space or SpaceType Name

OS:Schedule:Ruleset,
  {fbb4964a-4e23-4fa5-81ad-fb69f00e7d1f}, ! Handle
  LargeHotel Bldg Occ,                    ! Name
  {9035dcda-5359-40b5-af2d-b5ad50a63b48}, ! Schedule Type Limits Name
  {349eb48a-3d2c-4e1c-8f69-5cc6ed930100}, ! Default Day Schedule Name
  {adf4d9ef-9494-4de8-9fdf-90c7f31f47f2}, ! Summer Design Day Schedule Name
  {4dd7c350-f15c-4ddc-a20a-ddde9d3959f9}; ! Winter Design Day Schedule Name

OS:Schedule:Day,
  {349eb48a-3d2c-4e1c-8f69-5cc6ed930100}, ! Handle
  LargeHotel Bldg Occ Default Schedule,   ! Name
  {9035dcda-5359-40b5-af2d-b5ad50a63b48}, ! Schedule Type Limits Name
  ,                                       ! Interpolate to Timestep
  6,                                      !- Hour 1
  0,                                      !- Minute 1
  0.9,                                    !- Value Until Time 1
  7,                                      !- Hour 2
  0,                                      !- Minute 2
  0.7,                                    !- Value Until Time 2
  9,                                      !- Hour 3
  0,                                      !- Minute 3
  0.4,                                    !- Value Until Time 3
  15,                                     !- Hour 4
  0,                                      !- Minute 4
  0.2,                                    !- Value Until Time 4
  16,                                     !- Hour 5
  0,                                      !- Minute 5
  0.3,                                    !- Value Until Time 5
  19,                                     !- Hour 6
  0,                                      !- Minute 6
  0.5,                                    !- Value Until Time 6
  21,                                     !- Hour 7
  0,                                      !- Minute 7
  0.7,                                    !- Value Until Time 7
  22,                                     !- Hour 8
  0,                                      !- Minute 8
  0.8,                                    !- Value Until Time 8
  24,                                     !- Hour 9
  0,                                      !- Minute 9
  0.9;                                    !- Value Until Time 9

OS:Schedule:Day,
  {adf4d9ef-9494-4de8-9fdf-90c7f31f47f2}, ! Handle
  LargeHotel Bldg Occ Summer Design Day,  ! Name
  {9035dcda-5359-40b5-af2d-b5ad50a63b48}, ! Schedule Type Limits Name
  ,                                       ! Interpolate to Timestep
  24,                                     ! Hour 1
  0,                                      ! Minute 1
  1;                                      ! Value Until Time 1

OS:Schedule:Day,
  {4dd7c350-f15c-4ddc-a20a-ddde9d3959f9}, ! Handle
  LargeHotel Bldg Occ Winter Design Day,  ! Name
  {9035dcda-5359-40b5-af2d-b5ad50a63b48}, ! Schedule Type Limits Name
  ,                                       ! Interpolate to Timestep
  24,                                     ! Hour 1
  0,                                      ! Minute 1
  0;                                      ! Value Until Time 1

OS:Schedule:Rule,
  {4cbb4e63-e955-454b-9145-d10ec1989686}, ! Handle
  LargeHotel Bldg Occ Rule 1,             ! Name
  {fbb4964a-4e23-4fa5-81ad-fb69f00e7d1f}, ! Schedule Ruleset Name
  0,                                      ! Rule Order
  {c218fb7d-dd74-4a7c-a47a-d779bdda90d1}, ! Day Schedule Name
  Yes,                                    ! Apply Sunday
  No,                                     ! Apply Monday
  No,                                     ! Apply Tuesday
  No,                                     ! Apply Wednesday
  No,                                     ! Apply Thursday
  No,                                     ! Apply Friday
  No,                                     ! Apply Saturday
  ,                                       ! Apply Holiday
  DateRange,                              ! Date Specification Type
  1,                                      ! Start Month
  1,                                      ! Start Day
  12,                                     ! End Month
  31;                                     ! End Day

OS:Schedule:Day,
  {c218fb7d-dd74-4a7c-a47a-d779bdda90d1}, ! Handle
  LargeHotel Bldg Occ Rule 1 Day Schedule, ! Name
  {9035dcda-5359-40b5-af2d-b5ad50a63b48}, ! Schedule Type Limits Name
  ,                                       ! Interpolate to Timestep
  8,                                      ! Hour 1
  0,                                      ! Minute 1
  0.69999999999999996,                    ! Value Until Time 1
  11,                                     ! Hour 2
  0,                                      ! Minute 2
  0.5,                                    ! Value Until Time 2
  13,                                     ! Hour 3
  0,                                      ! Minute 3
  0.29999999999999999,                    ! Value Until Time 3
  16,                                     ! Hour 4
  0,                                      ! Minute 4
  0.20000000000000001,                    ! Value Until Time 4
  17,                                     ! Hour 5
  0,                                      ! Minute 5
  0.29999999999999999,                    ! Value Until Time 5
  19,                                     ! Hour 6
  0,                                      ! Minute 6
  0.40000000000000002,                    ! Value Until Time 6
  21,                                     ! Hour 7
  0,                                      ! Minute 7
  0.59999999999999998,                    ! Value Until Time 7
  24,                                     ! Hour 8
  0,                                      ! Minute 8
  0.80000000000000004;                    ! Value Until Time 8

OS:Schedule:Rule,
  {7813b1c4-eafa-4d80-9487-ec8dc2ac947c}, ! Handle
  LargeHotel Bldg Occ Rule 2,             ! Name
  {fbb4964a-4e23-4fa5-81ad-fb69f00e7d1f}, ! Schedule Ruleset Name
  1,                                      ! Rule Order
  {e0dc1be9-80fd-4dec-9430-9ac07a055745}, ! Day Schedule Name
  No,                                     ! Apply Sunday
  No,                                     ! Apply Monday
  No,                                     ! Apply Tuesday
  No,                                     ! Apply Wednesday
  No,                                     ! Apply Thursday
  No,                                     ! Apply Friday
  Yes,                                    ! Apply Saturday
  ,                                       ! Apply Holiday
  DateRange,                              ! Date Specification Type
  1,                                      ! Start Month
  1,                                      ! Start Day
  12,                                     ! End Month
  31;                                     ! End Day

OS:Schedule:Day,
  {e0dc1be9-80fd-4dec-9430-9ac07a055745}, ! Handle
  LargeHotel Bldg Occ Rule 2 Day Schedule, ! Name
  {9035dcda-5359-40b5-af2d-b5ad50a63b48}, ! Schedule Type Limits Name
  ,                                       ! Interpolate to Timestep
  6,                                      ! Hour 1
  0,                                      ! Minute 1
  0.90000000000000002,                    ! Value Until Time 1
  7,                                      ! Hour 2
  0,                                      ! Minute 2
  0.69999999999999996,                    ! Value Until Time 2
  9,                                      ! Hour 3
  0,                                      ! Minute 3
  0.5,                                    ! Value Until Time 3
  17,                                     ! Hour 4
  0,                                      ! Minute 4
  0.29999999999999999,                    ! Value Until Time 4
  18,                                     ! Hour 5
  0,                                      ! Minute 5
  0.5,                                    ! Value Until Time 5
  21,                                     ! Hour 6
  0,                                      ! Minute 6
  0.59999999999999998,                    ! Value Until Time 6
  24,                                     ! Hour 7
  0,                                      ! Minute 7
  0.69999999999999996;                    ! Value Until Time 7

OS:Schedule:Ruleset,
  {ebfb977e-e87b-470b-b78d-8a0d45f6eba8}, ! Handle
  LargeHotel Activity,                    ! Name
  {641af03d-1696-45d0-8b2a-1616cf94b2e5}, ! Schedule Type Limits Name
  {1da7f43d-af81-4d16-aaa7-0d70a60d1828}, ! Default Day Schedule Name
  {2e15eabd-fe9b-4141-8633-170d6662d1cb}, ! Summer Design Day Schedule Name
  {7e2baa7a-0f73-44d7-a4d3-757786425e9f}; ! Winter Design Day Schedule Name

OS:ScheduleTypeLimits,
  {641af03d-1696-45d0-8b2a-1616cf94b2e5}, !- Handle
  ActivityLevel 3,                        !- Name
  0,                                      !- Lower Limit Value {BasedOnField A4}
  ,                                       !- Upper Limit Value {BasedOnField A4}
  Continuous,                             !- Numeric Type
  ActivityLevel;                          !- Unit Type

OS:Schedule:Day,
  {1da7f43d-af81-4d16-aaa7-0d70a60d1828}, ! Handle
  LargeHotel Activity Default Schedule,   ! Name
  {641af03d-1696-45d0-8b2a-1616cf94b2e5}, ! Schedule Type Limits Name
  ,                                       ! Interpolate to Timestep
  24,                                     !- Hour 1
  0,                                      !- Minute 1
  120;                                    !- Value Until Time 1

OS:Schedule:Day,
  {2e15eabd-fe9b-4141-8633-170d6662d1cb}, ! Handle
  LargeHotel Activity Summer Design Day,  ! Name
  {641af03d-1696-45d0-8b2a-1616cf94b2e5}, ! Schedule Type Limits Name
  ,                                       ! Interpolate to Timestep
  24,                                     ! Hour 1
  0,                                      ! Minute 1
  120;                                    ! Value Until Time 1

OS:Schedule:Day,
  {7e2baa7a-0f73-44d7-a4d3-757786425e9f}, ! Handle
  LargeHotel Activity Winter Design Day,  ! Name
  {641af03d-1696-45d0-8b2a-1616cf94b2e5}, ! Schedule Type Limits Name
  ,                                       ! Interpolate to Timestep
  24,                                     ! Hour 1
  0,                                      ! Minute 1
  120;                                    ! Value Until Time 1

OS:SpaceInfiltration:DesignFlowRate,
  {a3969a7f-5fcf-46a8-9d17-ea0640c84e44}, !- Handle
  DOE Ref 2004 - LrgHotel - Banquet Infiltration, !- Name
  {1340ecfe-d2e1-4365-adbb-2287d82fef14}, !- Space or SpaceType Name
  ,                                       !- Schedule Name
  Flow/ExteriorArea,                      !- Design Flow Rate Calculation Method
  ,                                       !- Design Flow Rate {m3/s}
  ,                                       !- Flow per Space Floor Area {m3/s-m2}
  0.00030226,                             !- Flow per Exterior Surface Area {m3/s-m2}
  ,                                       !- Air Changes per Hour {1/hr}
  ,                                       !- Constant Term Coefficient
  ,                                       !- Temperature Term Coefficient
  ,                                       !- Velocity Term Coefficient
  ;                                       !- Velocity Squared Term Coefficient

OS:Schedule:Ruleset,
  {79f5a52a-f255-4f0b-9c80-fcade7d8af1f}, ! Handle
  LargeHotel Infil Quarter On,            ! Name
  {9035dcda-5359-40b5-af2d-b5ad50a63b48}, ! Schedule Type Limits Name
  {bac20422-e2b8-4add-9e77-a6ac00ea0626}, ! Default Day Schedule Name
  {5d1010bf-9cda-4c0e-a995-68cdc8449657}, ! Summer Design Day Schedule Name
  {a6128353-d450-4edf-8b03-bc5ba872acba}; ! Winter Design Day Schedule Name

OS:Schedule:Day,
  {bac20422-e2b8-4add-9e77-a6ac00ea0626}, ! Handle
  LargeHotel Infil Quarter On Default Schedule, ! Name
  {9035dcda-5359-40b5-af2d-b5ad50a63b48}, ! Schedule Type Limits Name
  ,                                       ! Interpolate to Timestep
  24,                                     !- Hour 1
  0,                                      !- Minute 1
  0.25;                                   !- Value Until Time 1

OS:Schedule:Day,
  {5d1010bf-9cda-4c0e-a995-68cdc8449657}, ! Handle
  LargeHotel Infil Quarter On Summer Design Day, ! Name
  {9035dcda-5359-40b5-af2d-b5ad50a63b48}, ! Schedule Type Limits Name
  ,                                       ! Interpolate to Timestep
  24,                                     ! Hour 1
  0,                                      ! Minute 1
  0.25;                                   ! Value Until Time 1

OS:Schedule:Day,
  {a6128353-d450-4edf-8b03-bc5ba872acba}, ! Handle
  LargeHotel Infil Quarter On Winter Design Day, ! Name
  {9035dcda-5359-40b5-af2d-b5ad50a63b48}, ! Schedule Type Limits Name
  ,                                       ! Interpolate to Timestep
  24,                                     ! Hour 1
  0,                                      ! Minute 1
  0.25;                                   ! Value Until Time 1

OS:ElectricEquipment:Definition,
  {26c92d12-7513-4911-995a-d3b9e910fedc}, !- Handle