
OS:Version,
  {c83e842d-9dd5-4ede-8583-3dd7844281cc}, !- Handle
  1.6.0;                                  !- Version Identifier

OS:ClimateZones,
  {00dda828-8d9d-4465-bd4d-0c0c556ea992}, !- Handle
  ,                                       !- Active Institution
  ,                                       !- Active Year
  ASHRAE,                                 !- Climate Zone Institution Name 1
  ANSI/ASHRAE Standard 169,               !- Climate Zone Document Name 1
  2006,                                   !- Climate Zone Document Year 1
  ,                                       !- Climate Zone Value 1
  CEC,                                    !- Climate Zone Institution Name 2
  California Climate Zone Descriptions,   !- Climate Zone Document Name 2
  1995,                                   !- Climate Zone Document Year 2
  ;                                       !- Climate Zone Value 2

OS:LifeCycleCost:Parameters,
  {6a4fbf89-81ad-4d65-b366-afd317fb7f33}, !- Handle
  FEMP,                                   !- Analysis Type
  ,                                       !- Discounting Convention
  ,                                       !- Inflation Approach
  ,                                       !- Real Discount Rate
  ,                                       !- Nominal Discount Rate
  ,                                       !- Inflation
  ,                                       !- Base Date Month
  ,                                       !- Base Date Year
  ,                                       !- Service Date Month
  ,                                       !- Service Date Year
  ,                                       !- Length of Study Period in Years
  ,                                       !- Tax Rate
  ,                                       !- Depreciation Method
  Yes;                                    !- Use NIST Fuel Escalation Rates

OS:YearDescription,
  {6db9d436-efda-4d1c-99cd-5e575aafcf98}; !- Handle

OS:Building,
  {aed50290-79f3-49ec-b232-91325ed1b660}, !- Handle
  Building 1,                             !- Name
  ,                                       !- Building Sector Type
  ,                                       !- North Axis {deg}
  ,                                       !- Nominal Floor to Floor Height {m}
  {f260fb77-0fb0-4f47-b8c5-aa22b7ce2dac}, !- Space Type Name
  {90d4c915-0591-47fc-989d-42d231506545}, !- Default Construction Set Name
  ;                                       !- Default Schedule Set Name

OS:Facility,
  {57faeb43-443e-4961-8221-fe11336fdc41}; !- Handle

OS:SpaceType,
  {69d5aa58-c05e-4342-84a4-6a4889543b4b}, !- Handle
  DOE Ref 2004 - Office - BreakRoom,      !- Name
  ,                                       !- Default Construction Set Name
  {857c67b6-99cd-4512-9eea-30fb364c410d}, !- Default Schedule Set Name
  {9ca8d5d8-5775-4135-af86-78dbb9006d1f}, !- Group Rendering Name
  {3b911fac-e751-4ccd-94bf-7f5bfb054bb2}, !- Design Specification Outdoor Air Object Name
  Office,                                 !- Standards Building Type
  BreakRoom;                              !- Standards Space Type

OS:Rendering:Color,
  {9ca8d5d8-5775-4135-af86-78dbb9006d1f}, !- Handle
  Rendering Color 1,                      !- Name
  230,                                    !- Rendering Red Value
  157,                                    !- Rendering Green Value
  120;                                    !- Rendering Blue Value

OS:DefaultScheduleSet,
  {857c67b6-99cd-4512-9eea-30fb364c410d}, !- Handle
  DOE Ref 2004 - Office - BreakRoom Schedule Set, !- Name
  ,                                       !- Hours of Operation Schedule Name
  {e913d3a6-b4bc-4699-8cd2-58b35268ac85}, !- Number of People Schedule Name
  {ce709aba-fef1-4a8e-b6fb-554328fe701d}, !- People Activity Level Schedule Name
  {4bfa7dd9-b456-4661-81f4-9fd667d39e02}, !- Lighting Schedule Name
  {534033ff-3bc9-4227-a697-1b3adc352711}, !- Electric Equipment Schedule Name
  ,                                       !- Gas Equipment Schedule Name
  ,                                       !- Hot Water Equipment Schedule Name
  {7c93a8c5-769c-4bb0-b984-e2829b9c0de3}, !- Infiltration Schedule Name
  ,                                       !- Steam Equipment Schedule Name
  ;                                       !- Other Equipment Schedule Name

OS:Lights:Definition,
  {33fecfee-d5a8-413e-b063-7ce2c10bfef6}, !- Handle
  DOE Ref 2004 - Office - BreakRoom Lights Definition, !- Name
  Watts/Area,                             !- Design Level Calculation Method
  ,                                       !- Lighting Level {W}
  12.9166925000517,                       !- Watts per Space Floor Area {W/m2}
  ;                                       !- Watts per Person {W/person}

OS:Lights,
  {a00c1e8a-041d-4cb9-b5dd-04fd671f7c55}, !- Handle
  DOE Ref 2004 - Office - BreakRoom Lights, !- Name
  {33fecfee-d5a8-413e-b063-7ce2c10bfef6}, !- Lights Definition Name
  {69d5aa58-c05e-4342-84a4-6a4889543b4b}; !- Space or SpaceType Name

OS:Schedule:Ruleset,
  {4bfa7dd9-b456-4661-81f4-9fd667d39e02}, ! Handle
  Office Bldg Light,                      ! Name
  {d1bf4d5d-6a16-4dde-8972-748460931e99}, ! Schedule Type Limits Name
  {7ecd77f8-2eef-42ab-9202-51519f3aeae4}, ! Default Day Schedule Name
  {c8127be0-6f04-4ad1-acfd-eab9f2768624}, ! Summer Design Day Schedule Name
  {a039432b-91d0-4847-a8df-7628b00377d4}; ! Winter Design Day Schedule Name

OS:ScheduleTypeLimits,
  {d1bf4d5d-6a16-4dde-8972-748460931e99}, ! Handle
  Fraction,                               ! Name
  0,                                      ! Lower Limit Value
  1,                                      ! Upper Limit Value
  CONTINUOUS;                             ! Numeric Type

OS:Schedule:Day,
  {7ecd77f8-2eef-42ab-9202-51519f3aeae4}, ! Handle
  Office Bldg Light Default Schedule,     ! Name
  {d1bf4d5d-6a16-4dde-8972-748460931e99}, ! Schedule Type Limits Name
  ,                                       ! Interpolate to Timestep
  5,                                      !- Hour 1
  0,                                      !- Minute 1
  0.05,                                   !- Value Until Time 1
  7,                                      !- Hour 2
  0,                                      !- Minute 2
  0.1,                                    !- Value Until Time 2
  8,                                      !- Hour 3
  0,                                      !- Minute 3
  0.3,                                    !- Value Until Time 3
  17,                                     !- Hour 4
  0,                                      !- Minute 4
  0.9,                                    !- Value Until Time 4
  18,                                     !- Hour 5
  0,                                      !- Minute 5
  0.7,                                    !- Value Until Time 5
  20,                                     !- Hour 6
  0,                                      !- Minute 6
  0.5,                                    !- Value Until Time 6
  22,                                     !- Hour 7
  0,                                      !- Minute 7
  0.3,                                    !- Value Until Time 7
  23,                                     !- Hour 8
  0,                                      !- Minute 8
  0.1,                                    !- Value Until Time 8
  24,                                     !- Hour 9
  0,                                      !- Minute 9
  0.05;                                   !- Value Until Time 9

OS:Schedule:Day,
  {c8127be0-6f04-4ad1-acfd-eab9f2768624}, ! Handle
  Office Bldg Light Summer Design Day,    ! Name
  {d1bf4d5d-6a16-4dde-8972-748460931e99}, ! Schedule Type Limits Name
  ,                                       ! Interpolate to Timestep
  24,                                     ! Hour 1
  0,                                      ! Minute 1
  1;                                      ! Value Until Time 1

OS:Schedule:Day,
  {a039432b-91d0-4847-a8df-7628b00377d4}, ! Handle
  Office Bldg Light Winter Design Day,    ! Name
  {d1bf4d5d-6a16-4dde-8972-748460931e99}, ! Schedule Type Limits Name
  ,                                       ! Interpolate to Timestep
  24,                                     ! Hour 1
  0,                                      ! Minute 1
  0;                                      ! Value Until Time 1

OS:Schedule:Rule,
  {b7645e81-aa12-4249-8bfc-619e5e3921f0}, ! Handle
  Office Bldg Light Rule 1,               ! Name
  {4bfa7dd9-b456-4661-81f4-9fd667d39e02}, ! Schedule Ruleset Name
  0,                                      ! Rule Order
  {5717965f-6a58-47b9-a290-27e542e4b8bd}, ! Day Schedule Name
  Yes,                                    ! Apply Sunday
  No,                                     ! Apply Monday
  No,                                     ! Apply Tuesday
  No,                                     ! Apply Wednesday
  No,                                     ! Apply Thursday
  No,                                     ! Apply Friday
  No,                                     ! Apply Saturday
  ,                                       ! Apply Holiday
  DateRange,                              ! Date Specification Type
  1,                                      ! Start Month
  1,                                      ! Start Day
  12,                                     ! End Month
  31;                                     ! End Day

OS:Schedule:Day,
  {5717965f-6a58-47b9-a290-27e542e4b8bd}, ! Handle
  Office Bldg Light Rule 1 Day Schedule,  ! Name
  {d1bf4d5d-6a16-4dde-8972-748460931e99}, ! Schedule Type Limits Name
  ,                                       ! Interpolate to Timestep
  24,                                     ! Hour 1
  0,                                      ! Minute 1
  0.050000000000000003;                   ! Value Until Time 1

OS:Schedule:Rule,
  {799684f6-58ef-4f42-a22b-8124ae712d15}, ! Handle
  Office Bldg Light Rule 2,               ! Name
  {4bfa7dd9-b456-4661-81f4-9fd667d39e02}, ! Schedule Ruleset Name
  1,                                      ! Rule Order
  {36e9dc12-78b5-42aa-a20c-8df4ff39f515}, ! Day Schedule Name
  No,                                     ! Apply Sunday
  No,                                     ! Apply Monday
  No,                                     ! Apply Tuesday
  No,                                     ! Apply Wednesday
  No,                                     ! Apply Thursday
  No,                                     ! Apply Friday
  Yes,                                    ! Apply Saturday
  ,                                       ! Apply Holiday
  DateRange,                              ! Date Specification Type
  1,                                      ! Start Month
  1,                                      ! Start Day
  12,                                     ! End Month
  31;                                     ! End Day

OS:Schedule:Day,
  {36e9dc12-78b5-42aa-a20c-8df4ff39f515}, ! Handle
  Office Bldg Light Rule 2 Day Schedule,  ! Name
  {d1bf4d5d-6a16-4dde-8972-748460931e99}, ! Schedule Type Limits Name
  ,                                       ! Interpolate to Timestep
  6,                                      ! Hour 1
  0,                                      ! Minute 1
  0.050000000000000003,                   ! Value Until Time 1
  8,                                      ! Hour 2
  0,                                      ! Minute 2
  0.10000000000000001,                    ! Value Until Time 2
  14,                                     ! Hour 3
  0,                                      ! Minute 3
  0.5,                                    ! Value Until Time 3
  17,                                     ! Hour 4
  0,                                      ! Minute 4
  0.14999999999999999,                    ! Value Until Time 4
  24,                                     ! Hour 5
  0,                                      ! Minute 5
  0.050000000000000003;                   ! Value Until Time 5

OS:DesignSpecification:OutdoorAir,
  {3b911fac-e751-4ccd-94bf-7f5bfb054bb2}, !- Handle
  DOE Ref 2004 - Office - BreakRoom Ventilation, !- Name
  Sum,                                    !- Outdoor Air Method
  0.007079211648,                         !- Outdoor Air Flow per Person {m3/s-person}
  ,                                       !- Outdoor Air Flow per Floor Area {m3/s-m2}
  ,                                       !- Outdoor Air Flow Rate {m3/s}
  ,                                       !- Outdoor Air Flow Air Changes per Hour {1/hr}
  ;                                       !- Outdoor Air Flow Rate Fraction Schedule Name

OS:People:Definition,
  {09c56bf0-848b-4825-bd21-2f961ea3647e}, !- Handle
  DOE Ref 2004 - Office - BreakRoom People Definition, !- Name
  People/Area,                            !- Number of People Calculation Method
  ,                                       !- Number of People {people}
  0.538195520835486,                      !- People per Space Floor Area {person/m2}
  ,                                       !- Space Floor Area per Person {m2/person}
  0.3;                                    !- Fraction Radiant

OS:People,
  {48fca1f6-dd08-409b-8ef9-a9117562e6d1}, !- Handle
  DOE Ref 2004 - Office - BreakRoom People, !- Name
  {09c56bf0-848b-4825-bd21-2f961ea3647e}, !- People Definition Name
  {69d5aa58-c05e-4342-84a4-6a4889543b4b}; !- Space or SpaceType Name

OS:Schedule:Ruleset,
  {e913d3a6-b4bc-4699-8cd2-58b35268ac85}, ! Handle
  Office Misc Occ,                        ! Name
  {d1bf4d5d-6a16-4dde-8972-748460931e99}, ! Schedule Type Limits Name
  {1755a2d0-acfe-42c7-9e69-0ae4b5279771}, ! Default Day Schedule Name
  {ae333a12-9bd3-4aa4-a3ee-60388a63b47e}, ! Summer Design Day Schedule Name
  {9c12ae1b-374f-44f1-b567-577a9d85fadf}; ! Winter Design Day Schedule Name

OS:Schedule:Day,
  {1755a2d0-acfe-42c7-9e69-0ae4b5279771}, ! Handle
  Office Bldg Occ Default Schedule 1,     ! Name
  {d1bf4d5d-6a16-4dde-8972-748460931e99}, ! Schedule Type Limits Name
  ,                                       ! Interpolate to Timestep
  6,                                      !- Hour 1
  0,                                      !- Minute 1
  0,                                      !- Value Until Time 1
  7,                                      !- Hour 2
  0,                                      !- Minute 2
  0.100000001490116,                      !- Value Until Time 2
  8,                                      !- Hour 3
  0,                                      !- Minute 3
  0.200000002980232,                      !- Value Until Time 3
  20,                                     !- Hour 4
  0,                                      !- Minute 4
  0.400000005960464,                      !- Value Until Time 4
  22,                                     !- Hour 5
  0,                                      !- Minute 5
  0.100000001490116,                      !- Value Until Time 5
  24,                                     !- Hour 6
  0,                                      !- Minute 6
  0.0500000007450581;                     !- Value Until Time 6

OS:Schedule:Day,
  {ae333a12-9bd3-4aa4-a3ee-60388a63b47e}, ! Handle
  Office Bldg Occ Summer Design Day 1,    ! Name
  {d1bf4d5d-6a16-4dde-8972-748460931e99}, ! Schedule Type Limits Name
  ,                                       ! Interpolate to Timestep
  6,                                      ! Hour 1
  0,                                      ! Minute 1
  0,                                      ! Value Until Time 1
  22,                                     ! Hour 2
  0,                                      ! Minute 2
  1,                                      ! Value Until Time 2
  24,                                     ! Hour 3
  0,                                      ! Minute 3
  0.050000000000000003;                   ! Value Until Time 3

OS:Schedule:Day,
  {9c12ae1b-374f-44f1-b567-577a9d85fadf}, ! Handle
  Office Bldg Occ Winter Design Day 1,    ! Name
  {d1bf4d5d-6a16-4dde-8972-748460931e99}, ! Schedule Type Limits Name
  ,                                       ! Interpolate to Timestep
  24,                                     ! Hour 1
  0,                                      ! Minute 1
  0;                                      ! Value Until Time 1

OS:Schedule:Rule,
  {313d6cab-bad0-4aa5-b688-dcbf7007b894}, ! Handle
  Office Misc Occ Rule 1,                 ! Name
  {e913d3a6-b4bc-4699-8cd2-58b35268ac85}, ! Schedule Ruleset Name
  0,                                      ! Rule Order
  {8a25cfc7-7128-4e1b-ae5e-d028baccb810}, ! Day Schedule Name
  Yes,                                    ! Apply Sunday
  No,                                     ! Apply Monday
  No,                                     ! Apply Tuesday
  No,                                     ! Apply Wednesday
  No,                                     ! Apply Thursday
  No,                                     ! Apply Friday
  No,                                     ! Apply Saturday
  ,                                       ! Apply Holiday
  DateRange,                              ! Date Specification Type
  1,                                      ! Start Month
  1,                                      ! Start Day
  12,                                     ! End Month
  31;                                     ! End Day

OS:Schedule:Day,
  {8a25cfc7-7128-4e1b-ae5e-d028baccb810}, ! Handle
  Office Bldg Occ Rule 1 Day Schedule 1,  ! Name
  {d1bf4d5d-6a16-4dde-8972-748460931e99}, ! Schedule Type Limits Name
  ,                                       ! Interpolate to Timestep
  24,                                     ! Hour 1
  0,                                      ! Minute 1
  0;                                      ! Value Until Time 1

OS:Schedule:Rule,
  {ad476c63-f361-4d54-a9e1-c1793ce3a94d}, ! Handle
  Office Misc Occ Rule 2,                 ! Name
  {e913d3a6-b4bc-4699-8cd2-58b35268ac85}, ! Schedule Ruleset Name
  1,                                      ! Rule Order
  {d2fc2e57-fe19-4706-a3b5-951c3aed62e8}, ! Day Schedule Name
  No,                                     ! Apply Sunday
  No,                                     ! Apply Monday
  No,                                     ! Apply Tuesday
  No,                                     ! Apply Wednesday
  No,                                     ! Apply Thursday
  No,                                     ! Apply Friday
  Yes,                                    ! Apply Saturday
  ,                                       ! Apply Holiday
  DateRange,                              ! Date Specification Type
  1,                                      ! Start Month
  1,                                      ! Start Day
  12,                                     ! End Month
  31;                                     ! End Day

OS:Schedule:Day,
  {d2fc2e57-fe19-4706-a3b5-951c3aed62e8}, ! Handle
  Office Bldg Occ Rule 2 Day Schedule 1,  ! Name
  {d1bf4d5d-6a16-4dde-8972-748460931e99}, ! Schedule Type Limits Name
  ,                                       ! Interpolate to Timestep
  6,                                      !- Hour 1
  0,                                      !- Minute 1
  0,                                      !- Value Until Time 1
  8,                                      !- Hour 2
  0,                                      !- Minute 2
  0.100000001490116,                      !- Value Until Time 2
  14,                                     !- Hour 3
  0,                                      !- Minute 3
  0.25,                                   !- Value Until Time 3
  17,                                     !- Hour 4
  0,                                      !- Minute 4
  0.100000001490116,                      !- Value Until Time 4
  24,                                     !- Hour 5
  0,                                      !- Minute 5
  0;                                      !- Value Until Time 5

OS:Schedule:Ruleset,
  {ce709aba-fef1-4a8e-b6fb-554328fe701d}, ! Handle
  Office Activity,                        ! Name
  {728be4ba-5203-4a21-b571-5c7a9bb14543}, ! Schedule Type Limits Name
  {205fbffa-4659-4c6f-a8a8-2c9ed350f6a3}, ! Default Day Schedule Name
  {5386a898-504f-46aa-a333-9504ba35ac28}, ! Summer Design Day Schedule Name
  {8fdb8953-0649-484b-b075-97d834132be4}; ! Winter Design Day Schedule Name

OS:ScheduleTypeLimits,
  {728be4ba-5203-4a21-b571-5c7a9bb14543}, !- Handle
  ActivityLevel,                          !- Name
  0,                                      !- Lower Limit Value {BasedOnField A4}
  ,                                       !- Upper Limit Value {BasedOnField A4}
  Continuous,                             !- Numeric Type
  ActivityLevel;                          !- Unit Type

OS:Schedule:Day,
  {205fbffa-4659-4c6f-a8a8-2c9ed350f6a3}, ! Handle
  Office Activity Default Schedule,       ! Name
  {728be4ba-5203-4a21-b571-5c7a9bb14543}, ! Schedule Type Limits Name
  ,                                       ! Interpolate to Timestep
  24,                                     !- Hour 1
  0,                                      !- Minute 1
  132;                                    !- Value Until Time 1

OS:Schedule:Day,
  {5386a898-504f-46aa-a333-9504ba35ac28}, ! Handle
  Office Activity Summer Design Day,      ! Name
  {728be4ba-5203-4a21-b571-5c7a9bb14543}, ! Schedule Type Limits Name
  ,                                       ! Interpolate to Timestep
  24,                                     !- Hour 1
  0,                                      !- Minute 1
  132;                                    !- Value Until Time 1

OS:Schedule:Day,
  {8fdb8953-0649-484b-b075-97d834132be4}, ! Handle
  Office Activity Winter Design Day,      ! Name
  {728be4ba-5203-4a21-b571-5c7a9bb14543}, ! Schedule Type Limits Name
  ,                                       ! Interpolate to Timestep
  24,                                     !- Hour 1
  0,                                      !- Minute 1
  132;                                    !- Value Until Time 1

OS:SpaceInfiltration:DesignFlowRate,
  {01f0d49f-a13e-4c45-a8d8-1fc82650a50f}, !- Handle
  DOE Ref 2004 - Office - BreakRoom Infiltration, !- Name
  {69d5aa58-c05e-4342-84a4-6a4889543b4b}, !- Space or SpaceType Name
  ,                                       !- Schedule Name
  Flow/ExteriorArea,                      !- Design Flow Rate Calculation Method
  ,                                       !- Design Flow Rate {m3/s}
  ,                                       !- Flow per Space Floor Area {m3/s-m2}
  0.00030226,                             !- Flow per Exterior Surface Area {m3/s-m2}
  ,                                       !- Air Changes per Hour {1/hr}
  ,                                       !- Constant Term Coefficient
  ,                                       !- Temperature Term Coefficient
  ,                                       !- Velocity Term Coefficient
  ;                                       !- Velocity Squared Term Coefficient

OS:Schedule:Ruleset,
  {7c93a8c5-769c-4bb0-b984-e2829b9c0de3}, ! Handle
  Office Infil Quarter On,                ! Name
  {d1bf4d5d-6a16-4dde-8972-748460931e99}, ! Schedule Type Limits Name
  {e8eb75a4-ffb8-447c-87eb-625f9c54bfdd}, ! Default Day Schedule Name
  {b83d34d6-f5c5-490c-8062-337c939c71e9}, ! Summer Design Day Schedule Name
  {cf766e04-ef7c-4910-b895-314d5bb5f86e}; ! Winter Design Day Schedule Name

OS:Schedule:Day,
  {e8eb75a4-ffb8-447c-87eb-625f9c54bfdd}, ! Handle
  Office Infil Quarter On Default Schedule, ! Name
  {d1bf4d5d-6a16-4dde-8972-748460931e99}, ! Schedule Type Limits Name
  ,                                       ! Interpolate to Timestep
  6,                                      !- Hour 1
  0,                                      !- Minute 1
  1,                                      !- Value Until Time 1
  22,                                     !- Hour 2
  0,                                      !- Minute 2
  0.25,                                   !- Value Until Time 2
  24,                                     !- Hour 3
  0,                                      !- Minute 3
  1;                                      !- Value Until Time 3

OS:Schedule:Day,
  {b83d34d6-f5c5-490c-8062-337c939c71e9}, ! Handle
  Office Infil Quarter On Summer Design Day, ! Name
  {d1bf4d5d-6a16-4dde-8972-748460931e99}, ! Schedule Type Limits Name
  ,                                       ! Interpolate to Timestep
  6,                                      ! Hour 1
  0,                                      ! Minute 1
  1,                                      ! Value Until Time 1
  22,                                     ! Hour 2
  0,                                      ! Minute 2
  0.25,                                   ! Value Until Time 2
  24,                                     ! Hour 3
  0,                                      ! Minute 3
  1;                                      ! Value Until Time 3

OS:Schedule:Day,
  {cf766e04-ef7c-4910-b895-314d5bb5f86e}, ! Handle
  Office Infil Quarter On Winter Design Day, ! Name
  {d1bf4d5d-6a16-4dde-8972-748460931e99}, ! Schedule Type Limits Name
  ,                                       ! Interpolate to Timestep
  6,                                      ! Hour 1
  0,                                      ! Minute 1
  1,                                      ! Value Until Time 1
  18,                                     ! Hour 2
  0,                                      ! Minute 2
  0.25,                                   ! Value Until Time 2
  24,                                     ! Hour 3
  0,                                      ! Minute 3
  1;                                      ! Value Until Time 3

OS:Schedule:Rule,
  {e51960a0-4e0e-40e0-b6c9-7995b79a3f33}, ! Handle
  Office Infil Quarter On Rule 1,         ! Name
  {7c93a8c5-769c-4bb0-b984-e2829b9c0de3}, ! Schedule Ruleset Name
  0,                                      ! Rule Order
  {6e2004a8-5463-4cd3-97a1-ddc3bdfbc9fa}, ! Day Schedule Name
  Yes,                                    ! Apply Sunday
  No,                                     ! Apply Monday
  No,                                     ! Apply Tuesday
  No,                                     ! Apply Wednesday
  No,                                     ! Apply Thursday
  No,                                     ! Apply Friday
  No,                                     ! Apply Saturday
  ,                                       ! Apply Holiday
  DateRange,                              ! Date Specification Type
  1,                                      ! Start Month
  1,                                      ! Start Day
  12,                                     ! End Month
  31;                                     ! End Day

OS:Schedule:Day,
  {6e2004a8-5463-4cd3-97a1-ddc3bdfbc9fa}, ! Handle
  Office Infil Quarter On Rule 1 Day Schedule, ! Name
  {d1bf4d5d-6a16-4dde-8972-748460931e99}, ! Schedule Type Limits Name
  ,                                       ! Interpolate to Timestep
  24,                                     ! Hour 1
  0,                                      ! Minute 1
  1;                                      ! Value Until Time 1

OS:Schedule:Rule,
  {1e46d1cf-0afe-46aa-ac2e-dd28937c85a7}, ! Handle
  Office Infil Quarter On Rule 2,         ! Name
  {7c93a8c5-769c-4bb0-b984-e2829b9c0de3}, ! Schedule Ruleset Name
  1,                                      ! Rule Order
  {ce3de398-7b81-4959-a493-936d00605190}, ! Day Schedule Name
  No,                                     ! Apply Sunday
  No,                                     ! Apply Monday
  No,                                     ! Apply Tuesday
  No,                                     ! Apply Wednesday
  No,                                     ! Apply Thursday
  No,                                     ! Apply Friday
  Yes,                                    ! Apply Saturday
  ,                                       ! Apply Holiday
  DateRange,                              ! Date Specification Type
  1,                                      ! Start Month
  1,                                      ! Start Day
  12,                                     ! End Month
  31;                                     ! End Day

OS:Schedule:Day,
  {ce3de398-7b81-4959-a493-936d00605190}, ! Handle
  Office Infil Quarter On Rule 2 Day Schedule, ! Name
  {d1bf4d5d-6a16-4dde-8972-748460931e99}, ! Schedule Type Limits Name
  ,                                       ! Interpolate to Timestep
  6,                                      ! Hour 1
  0,                                      ! Minute 1
  1,                                      ! Value Until Time 1
  18,                                     ! Hour 2
  0,                                      ! Minute 2
  0.25,                                   ! Value Until Time 2
  24,                                     ! Hour 3
  0,                                      ! Minute 3
  1;                                      ! Value Until Time 3

OS:ElectricEquipment:Definition,
  {7083702c-d566-42b7-96cf-289da3bb948c}, !- Handle
  DOE Ref 2004 - Office - BreakRoom Electric Equipment Definition, !- Name
  Watts/Area,                             !- Design Level Calculation Method
  ,                                       !- Design Level {W}
  60.0626201252403,                       !- Watts per Space Floor Area {W/m2}
  ;                                       !- Watts per Person {W/person}

OS:ElectricEquipment,
  {8e8213a6-aca2-49a1-8ece-2c5e33c58734}, !- Handle
  DOE Ref 2004 - Office - BreakRoom Electric Equipment, !- Name
  {7083702c-d566-42b7-96cf-289da3bb948c}, !- Electric Equipment Definition Name
  {69d5aa58-c05e-4342-84a4-6a4889543b4b}; !- Space or SpaceType Name

OS:Schedule:Ruleset,
  {534033ff-3bc9-4227-a697-1b3adc352711}, ! Handle
  Office Bldg Equip,                      ! Name
  {d1bf4d5d-6a16-4dde-8972-748460931e99}, ! Schedule Type Limits Name
  {8781d85f-1ca7-4b3b-ad3a-26761a82c2cb}, ! Default Day Schedule Name