
OS:Version,
  {c83e842d-9dd5-4ede-8583-3dd7844281cc}, !- Handle
  1.6.0;                                  !- Version Identifier

OS:ClimateZones,
  {00dda828-8d9d-4465-bd4d-0c0c556ea992}, !- Handle
  ,                                       !- Active Institution
  ,                                       !- Active Year
  ASHRAE,                                 !- Climate Zone Institution Name 1
  ANSI/ASHRAE Standard 169,               !- Climate Zone Document Name 1
  2006,                                   !- Climate Zone Document Year 1
  ,                                       !- Climate Zone Value 1
  CEC,                                    !- Climate Zone Institution Name 2
  California Climate Zone Descriptions,   !- Climate Zone Document Name 2
  1995,                                   !- Climate Zone Document Year 2
  ;                                       !- Climate Zone Value 2

OS:LifeCycleCost:Parameters,
  {6a4fbf89-81ad-4d65-b366-afd317fb7f33}, !- Handle
  FEMP,                                   !- Analysis Type
  ,                                       !- Discounting Convention
  ,                                       !- Inflation Approach
  ,                                       !- Real Discount Rate
  ,                                       !- Nominal Discount Rate
  ,                                       !- Inflation
  ,                                       !- Base Date Month
  ,                                       !- Base Date Year
  ,                                       !- Service Date Month
  ,                                       !- Service Date Year
  ,                                       !- Length of Study Period in Years
  ,                                       !- Tax Rate
  ,                                       !- Depreciation Method
  Yes;                                    !- Use NIST Fuel Escalation Rates

OS:YearDescription,
  {6db9d436-efda-4d1c-99cd-5e575aafcf98}; !- Handle

OS:Building,
  {aed50290-79f3-49ec-b232-91325ed1b660}, !- Handle
  Building 1,                             !- Name
  ,                                       !- Building Sector Type
  ,                                       !- North Axis {deg}
  ,                                       !- Nominal Floor to Floor Height {m}
  {aee6677b-87bd-441c-b713-787e919f96ad}, !- Space Type Name
  {d2644822-a5f3-48e9-bdf4-2e4519086565}, !- Default Construction Set Name
  ;                                       !- Default Schedule Set Name

OS:Facility,
  {57faeb43-443e-4961-8221-fe11336fdc41}; !- Handle

OS:SpaceType,
  {d84c241e-fd20-4a5d-97a5-74389c6b8093}, !- Handle
  DOE Ref 2004 - Office - BreakRoom,      !- Name
  ,                                       !- Default Construction Set Name
  {599121a2-b80f-427f-b736-ea985672eb73}, !- Default Schedule Set Name
  {525d3203-2d46-4623-89d0-bd46abd4e19f}, !- Group Rendering Name
  {276623d4-5289-4088-a770-3ae5cf675733}, !- Design Specification Outdoor Air Object Name
  Office,                                 !- Standards Building Type
  BreakRoom;                              !- Standards Space Type

OS:Rendering:Color,
  {525d3203-2d46-4623-89d0-bd46abd4e19f}, !- Handle
  Rendering Color 1,                      !- Name
  230,                                    !- Rendering Red Value
  157,                                    !- Rendering Green Value
  120;                                    !- Rendering Blue Value

OS:DefaultScheduleSet,
  {599121a2-b80f-427f-b736-ea985672eb73}, !- Handle
  DOE Ref 2004 - Office - BreakRoom Schedule Set, !- Name
  ,                                       !- Hours of Operation Schedule Name
  {ed467611-76ca-4c5e-b6de-15949cbe29d9}, !- Number of People Schedule Name
  {d7cbaeeb-eb85-40b9-bb20-ec686f7a1ae7}, !- People Activity Level Schedule Name
  {0b400526-92a3-4eeb-875b-48de4a4df0d1}, !- Lighting Schedule Name
  {28cf3f8b-2c15-4584-97bc-99235d99718a}, !- Electric Equipment Schedule Name
  ,                                       !- Gas Equipment Schedule Name
  ,                                       !- Hot Water Equipment Schedule Name
  {e5488baf-24ea-4625-af20-d1856ef28942}, !- Infiltration Schedule Name
  ,                                       !- Steam Equipment Schedule Name
  ;                                       !- Other Equipment Schedule Name

OS:Lights:Definition,
  {87eb50c8-4a88-447c-84a5-2d3534563b28}, !- Handle
  DOE Ref 2004 - Office - BreakRoom Lights Definition, !- Name
  Watts/Area,                             !- Design Level Calculation Method
  ,                                       !- Lighting Level {W}
  12.9166925000517,                       !- Watts per Space Floor Area {W/m2}
  ;                                       !- Watts per Person {W/person}

OS:Lights,
  {6c1b2801-aa2a-40c4-af67-08e0c2bc71d0}, !- Handle
  DOE Ref 2004 - Office - BreakRoom Lights, !- Name
  {87eb50c8-4a88-447c-84a5-2d3534563b28}, !- Lights Definition Name
  {d84c241e-fd20-4a5d-97a5-74389c6b8093}; !- Space or SpaceType Name

OS:Schedule:Ruleset,
  {0b400526-92a3-4eeb-875b-48de4a4df0d1}, ! Handle
  Office Bldg Light,                      ! Name
  {8779c8e1-9faa-4bed-a27b-ba6b454d6c78}, ! Schedule Type Limits Name
  {268f6bbe-c479-496d-97fc-6a55ab468a0e}, ! Default Day Schedule Name
  {7e1c3cd4-9390-4a4d-9cd5-cdc679e96ed3}, ! Summer Design Day Schedule Name
  {b6e596a5-6ee1-4ee2-8e59-1be80da437af}; ! Winter Design Day Schedule Name

OS:ScheduleTypeLimits,
  {8779c8e1-9faa-4bed-a27b-ba6b454d6c78}, ! Handle
  Fraction,                               ! Name
  0,                                      ! Lower Limit Value
  1,                                      ! Upper Limit Value
  CONTINUOUS;                             ! Numeric Type

OS:Schedule:Day,
  {268f6bbe-c479-496d-97fc-6a55ab468a0e}, ! Handle
  Office Bldg Light Default Schedule,     ! Name
  {8779c8e1-9faa-4bed-a27b-ba6b454d6c78}, ! Schedule Type Limits Name
  ,                                       ! Interpolate to Timestep
  5,                                      !- Hour 1
  0,                                      !- Minute 1
  0.05,                                   !- Value Until Time 1
  7,                                      !- Hour 2
  0,                                      !- Minute 2
  0.1,                                    !- Value Until Time 2
  8,                                      !- Hour 3
  0,                                      !- Minute 3
  0.3,                                    !- Value Until Time 3
  17,                                     !- Hour 4
  0,                                      !- Minute 4
  0.9,                                    !- Value Until Time 4
  18,                                     !- Hour 5
  0,                                      !- Minute 5
  0.7,                                    !- Value Until Time 5
  20,                                     !- Hour 6
  0,                                      !- Minute 6
  0.5,                                    !- Value Until Time 6
  22,                                     !- Hour 7
  0,                                      !- Minute 7
  0.3,                                    !- Value Until Time 7
  23,                                     !- Hour 8
  0,                                      !- Minute 8
  0.1,                                    !- Value Until Time 8
  24,                                     !- Hour 9
  0,                                      !- Minute 9
  0.05;                                   !- Value Until Time 9

OS:Schedule:Day,
  {7e1c3cd4-9390-4a4d-9cd5-cdc679e96ed3}, ! Handle
  Office Bldg Light Summer Design Day,    ! Name
  {8779c8e1-9faa-4bed-a27b-ba6b454d6c78}, ! Schedule Type Limits Name
  ,                                       ! Interpolate to Timestep
  24,                                     ! Hour 1
  0,                                      ! Minute 1
  1;                                      ! Value Until Time 1

OS:Schedule:Day,
  {b6e596a5-6ee1-4ee2-8e59-1be80da437af}, ! Handle
  Office Bldg Light Winter Design Day,    ! Name
  {8779c8e1-9faa-4bed-a27b-ba6b454d6c78}, ! Schedule Type Limits Name
  ,                                       ! Interpolate to Timestep
  24,                                     ! Hour 1
  0,                                      ! Minute 1
  0;                                      ! Value Until Time 1

OS:Schedule:Rule,
  {b3e71a5c-aa97-45da-ad52-205ca0974eb2}, ! Handle
  Office Bldg Light Rule 1,               ! Name
  {0b400526-92a3-4eeb-875b-48de4a4df0d1}, ! Schedule Ruleset Name
  0,                                      ! Rule Order
  {fb2e1928-025b-4d4e-b4a8-537c09febba6}, ! Day Schedule Name
  Yes,                                    ! Apply Sunday
  No,                                     ! Apply Monday
  No,                                     ! Apply Tuesday
  No,                                     ! Apply Wednesday
  No,                                     ! Apply Thursday
  No,                                     ! Apply Friday
  No,                                     ! Apply Saturday
  ,                                       ! Apply Holiday
  DateRange,                              ! Date Specification Type
  1,                                      ! Start Month
  1,                                      ! Start Day
  12,                                     ! End Month
  31;                                     ! End Day

OS:Schedule:Day,
  {fb2e1928-025b-4d4e-b4a8-537c09febba6}, ! Handle
  Office Bldg Light Rule 1 Day Schedule,  ! Name
  {8779c8e1-9faa-4bed-a27b-ba6b454d6c78}, ! Schedule Type Limits Name
  ,                                       ! Interpolate to Timestep
  24,                                     ! Hour 1
  0,                                      ! Minute 1
  0.050000000000000003;                   ! Value Until Time 1

OS:Schedule:Rule,
  {8e3348a5-feb4-4693-bd96-b166858d3e82}, ! Handle
  Office Bldg Light Rule 2,               ! Name
  {0b400526-92a3-4eeb-875b-48de4a4df0d1}, ! Schedule Ruleset Name
  1,                                      ! Rule Order
  {88858304-075c-4af0-9bf6-43ced8b850fb}, ! Day Schedule Name
  No,                                     ! Apply Sunday
  No,                                     ! Apply Monday
  No,                                     ! Apply Tuesday
  No,                                     ! Apply Wednesday
  No,                                     ! Apply Thursday
  No,                                     ! Apply Friday
  Yes,                                    ! Apply Saturday
  ,                                       ! Apply Holiday
  DateRange,                              ! Date Specification Type
  1,                                      ! Start Month
  1,                                      ! Start Day
  12,                                     ! End Month
  31;                                     ! End Day

OS:Schedule:Day,
  {88858304-075c-4af0-9bf6-43ced8b850fb}, ! Handle
  Office Bldg Light Rule 2 Day Schedule,  ! Name
  {8779c8e1-9faa-4bed-a27b-ba6b454d6c78}, ! Schedule Type Limits Name
  ,                                       ! Interpolate to Timestep
  6,                                      ! Hour 1
  0,                                      ! Minute 1
  0.050000000000000003,                   ! Value Until Time 1
  8,                                      ! Hour 2
  0,                                      ! Minute 2
  0.10000000000000001,                    ! Value Until Time 2
  14,                                     ! Hour 3
  0,                                      ! Minute 3
  0.5,                                    ! Value Until Time 3
  17,                                     ! Hour 4
  0,                                      ! Minute 4
  0.14999999999999999,                    ! Value Until Time 4
  24,                                     ! Hour 5
  0,                                      ! Minute 5
  0.050000000000000003;                   ! Value Until Time 5

OS:DesignSpecification:OutdoorAir,
  {276623d4-5289-4088-a770-3ae5cf675733}, !- Handle
  DOE Ref 2004 - Office - BreakRoom Ventilation, !- Name
  Sum,                                    !- Outdoor Air Method
  0.007079211648,                         !- Outdoor Air Flow per Person {m3/s-person}
  ,                                       !- Outdoor Air Flow per Floor Area {m3/s-m2}
  ,                                       !- Outdoor Air Flow Rate {m3/s}
  ,                                       !- Outdoor Air Flow Air Changes per Hour {1/hr}
  ;                                       !- Outdoor Air Flow Rate Fraction Schedule Name

OS:People:Definition,
  {d0231881-03fe-4f5d-946a-b8c449c1c213}, !- Handle
  DOE Ref 2004 - Office - BreakRoom People Definition, !- Name
  People/Area,                            !- Number of People Calculation Method
  ,                                       !- Number of People {people}
  0.538195520835486,                      !- People per Space Floor Area {person/m2}
  ,                                       !- Space Floor Area per Person {m2/person}
  0.3;                                    !- Fraction Radiant

OS:People,
  {32117087-835c-4cf5-aff7-fea335537e63}, !- Handle
  DOE Ref 2004 - Office - BreakRoom People, !- Name
  {d0231881-03fe-4f5d-946a-b8c449c1c213}, !- People Definition Name
  {d84c241e-fd20-4a5d-97a5-74389c6b8093}; !- Space or SpaceType Name

OS:Schedule:Ruleset,
  {ed467611-76ca-4c5e-b6de-15949cbe29d9}, ! Handle
  Office Misc Occ,                        ! Name
  {8779c8e1-9faa-4bed-a27b-ba6b454d6c78}, ! Schedule Type Limits Name
  {dd534094-a7d7-4dc5-85cb-9714e5b61f22}, ! Default Day Schedule Name
  {598e650b-cfd2-4866-b1cc-f79e673b5f61}, ! Summer Design Day Schedule Name
  {2c88896d-3f87-4679-b6a1-4eb4de72dee2}; ! Winter Design Day Schedule Name

OS:Schedule:Day,
  {dd534094-a7d7-4dc5-85cb-9714e5b61f22}, ! Handle
  Office Bldg Occ Default Schedule 1,     ! Name
  {8779c8e1-9faa-4bed-a27b-ba6b454d6c78}, ! Schedule Type Limits Name
  ,                                       ! Interpolate to Timestep
  6,                                      !- Hour 1
  0,                                      !- Minute 1
  0,                                      !- Value Until Time 1
  7,                                      !- Hour 2
  0,                                      !- Minute 2
  0.100000001490116,                      !- Value Until Time 2
  8,                                      !- Hour 3
  0,                                      !- Minute 3
  0.200000002980232,                      !- Value Until Time 3
  20,                                     !- Hour 4
  0,                                      !- Minute 4
  0.400000005960464,                      !- Value Until Time 4
  22,                                     !- Hour 5
  0,                                      !- Minute 5
  0.100000001490116,                      !- Value Until Time 5
  24,                                     !- Hour 6
  0,                                      !- Minute 6
  0.0500000007450581;                     !- Value Until Time 6

OS:Schedule:Day,
  {598e650b-cfd2-4866-b1cc-f79e673b5f61}, ! Handle
  Office Bldg Occ Summer Design Day 1,    ! Name
  {8779c8e1-9faa-4bed-a27b-ba6b454d6c78}, ! Schedule Type Limits Name
  ,                                       ! Interpolate to Timestep
  6,                                      ! Hour 1
  0,                                      ! Minute 1
  0,                                      ! Value Until Time 1
  22,                                     ! Hour 2
  0,                                      ! Minute 2
  1,                                      ! Value Until Time 2
  24,                                     ! Hour 3
  0,                                      ! Minute 3
  0.050000000000000003;                   ! Value Until Time 3

OS:Schedule:Day,
  {2c88896d-3f87-4679-b6a1-4eb4de72dee2}, ! Handle
  Office Bldg Occ Winter Design Day 1,    ! Name
  {8779c8e1-9faa-4bed-a27b-ba6b454d6c78}, ! Schedule Type Limits Name
  ,                                       ! Interpolate to Timestep
  24,                                     ! Hour 1
  0,                                      ! Minute 1
  0;                                      ! Value Until Time 1

OS:Schedule:Rule,
  {6fe09c91-e72b-4e54-abd9-4959ed9a3fcd}, ! Handle
  Office Misc Occ Rule 1,                 ! Name
  {ed467611-76ca-4c5e-b6de-15949cbe29d9}, ! Schedule Ruleset Name
  0,                                      ! Rule Order
  {0a0bdf3e-d869-4bd2-aee7-608fe2fce52b}, ! Day Schedule Name
  Yes,                                    ! Apply Sunday
  No,                                     ! Apply Monday
  No,                                     ! Apply Tuesday
  No,                                     ! Apply Wednesday
  No,                                     ! Apply Thursday
  No,                                     ! Apply Friday
  No,                                     ! Apply Saturday
  ,                                       ! Apply Holiday
  DateRange,                              ! Date Specification Type
  1,                                      ! Start Month
  1,                                      ! Start Day
  12,                                     ! End Month
  31;                                     ! End Day

OS:Schedule:Day,
  {0a0bdf3e-d869-4bd2-aee7-608fe2fce52b}, ! Handle
  Office Bldg Occ Rule 1 Day Schedule 1,  ! Name
  {8779c8e1-9faa-4bed-a27b-ba6b454d6c78}, ! Schedule Type Limits Name
  ,                                       ! Interpolate to Timestep
  24,                                     ! Hour 1
  0,                                      ! Minute 1
  0;                                      ! Value Until Time 1

OS:Schedule:Rule,
  {519fe06b-bf70-4c94-a195-0cf9ad6fe246}, ! Handle
  Office Misc Occ Rule 2,                 ! Name
  {ed467611-76ca-4c5e-b6de-15949cbe29d9}, ! Schedule Ruleset Name
  1,                                      ! Rule Order
  {bcec1f55-5464-40ba-aa05-25522176a672}, ! Day Schedule Name
  No,                                     ! Apply Sunday
  No,                                     ! Apply Monday
  No,                                     ! Apply Tuesday
  No,                                     ! Apply Wednesday
  No,                                     ! Apply Thursday
  No,                                     ! Apply Friday
  Yes,                                    ! Apply Saturday
  ,                                       ! Apply Holiday
  DateRange,                              ! Date Specification Type
  1,                                      ! Start Month
  1,                                      ! Start Day
  12,                                     ! End Month
  31;                                     ! End Day

OS:Schedule:Day,
  {bcec1f55-5464-40ba-aa05-25522176a672}, ! Handle
  Office Bldg Occ Rule 2 Day Schedule 1,  ! Name
  {8779c8e1-9faa-4bed-a27b-ba6b454d6c78}, ! Schedule Type Limits Name
  ,                                       ! Interpolate to Timestep
  6,                                      !- Hour 1
  0,                                      !- Minute 1
  0,                                      !- Value Until Time 1
  8,                                      !- Hour 2
  0,                                      !- Minute 2
  0.100000001490116,                      !- Value Until Time 2
  14,                                     !- Hour 3
  0,                                      !- Minute 3
  0.25,                                   !- Value Until Time 3
  17,                                     !- Hour 4
  0,                                      !- Minute 4
  0.100000001490116,                      !- Value Until Time 4
  24,                                     !- Hour 5
  0,                                      !- Minute 5
  0;                                      !- Value Until Time 5

OS:Schedule:Ruleset,
  {d7cbaeeb-eb85-40b9-bb20-ec686f7a1ae7}, ! Handle
  Office Activity,                        ! Name
  {1e832968-b641-4e44-b275-661648f4502e}, ! Schedule Type Limits Name
  {a144d2ed-7b5d-41b0-a40a-3bf87216b2f8}, ! Default Day Schedule Name
  {0672c359-ccd2-46bb-ae14-c8946fa5d855}, ! Summer Design Day Schedule Name
  {a5df14d6-0c05-48b9-be29-bbc639aaa98a}; ! Winter Design Day Schedule Name

OS:ScheduleTypeLimits,
  {1e832968-b641-4e44-b275-661648f4502e}, !- Handle
  ActivityLevel,                          !- Name
  0,                                      !- Lower Limit Value {BasedOnField A4}
  ,                                       !- Upper Limit Value {BasedOnField A4}
  Continuous,                             !- Numeric Type
  ActivityLevel;                          !- Unit Type

OS:Schedule:Day,
  {a144d2ed-7b5d-41b0-a40a-3bf87216b2f8}, ! Handle
  Office Activity Default Schedule,       ! Name
  {1e832968-b641-4e44-b275-661648f4502e}, ! Schedule Type Limits Name
  ,                                       ! Interpolate to Timestep
  24,                                     !- Hour 1
  0,                                      !- Minute 1
  132;                                    !- Value Until Time 1

OS:Schedule:Day,
  {0672c359-ccd2-46bb-ae14-c8946fa5d855}, ! Handle
  Office Activity Summer Design Day,      ! Name
  {1e832968-b641-4e44-b275-661648f4502e}, ! Schedule Type Limits Name
  ,                                       ! Interpolate to Timestep
  24,                                     !- Hour 1
  0,                                      !- Minute 1
  132;                                    !- Value Until Time 1

OS:Schedule:Day,
  {a5df14d6-0c05-48b9-be29-bbc639aaa98a}, ! Handle
  Office Activity Winter Design Day,      ! Name
  {1e832968-b641-4e44-b275-661648f4502e}, ! Schedule Type Limits Name
  ,                                       ! Interpolate to Timestep
  24,                                     !- Hour 1
  0,                                      !- Minute 1
  132;                                    !- Value Until Time 1

OS:SpaceInfiltration:DesignFlowRate,
  {f7d9ca89-73be-47db-afa3-9b5841631ab4}, !- Handle
  DOE Ref 2004 - Office - BreakRoom Infiltration, !- Name
  {d84c241e-fd20-4a5d-97a5-74389c6b8093}, !- Space or SpaceType Name
  ,                                       !- Schedule Name
  Flow/ExteriorArea,                      !- Design Flow Rate Calculation Method
  ,                                       !- Design Flow Rate {m3/s}
  ,                                       !- Flow per Space Floor Area {m3/s-m2}
  0.00030226,                             !- Flow per Exterior Surface Area {m3/s-m2}
  ,                                       !- Air Changes per Hour {1/hr}
  ,                                       !- Constant Term Coefficient
  ,                                       !- Temperature Term Coefficient
  ,                                       !- Velocity Term Coefficient
  ;                                       !- Velocity Squared Term Coefficient

OS:Schedule:Ruleset,
  {e5488baf-24ea-4625-af20-d1856ef28942}, ! Handle
  Office Infil Quarter On,                ! Name
  {8779c8e1-9faa-4bed-a27b-ba6b454d6c78}, ! Schedule Type Limits Name
  {7974bcff-66b8-4db9-81da-cfbcd6ccd4f2}, ! Default Day Schedule Name
  {0ed33998-b5cf-486f-add8-84300bf9aa43}, ! Summer Design Day Schedule Name
  {5e2e3d7d-33fe-48f5-907a-7895c5986aea}; ! Winter Design Day Schedule Name

OS:Schedule:Day,
  {7974bcff-66b8-4db9-81da-cfbcd6ccd4f2}, ! Handle
  Office Infil Quarter On Default Schedule, ! Name
  {8779c8e1-9faa-4bed-a27b-ba6b454d6c78}, ! Schedule Type Limits Name
  ,                                       ! Interpolate to Timestep
  6,                                      !- Hour 1
  0,                                      !- Minute 1
  1,                                      !- Value Until Time 1
  22,                                     !- Hour 2
  0,                                      !- Minute 2
  0.25,                                   !- Value Until Time 2
  24,                                     !- Hour 3
  0,                                      !- Minute 3
  1;                                      !- Value Until Time 3

OS:Schedule:Day,
  {0ed33998-b5cf-486f-add8-84300bf9aa43}, ! Handle
  Office Infil Quarter On Summer Design Day, ! Name
  {8779c8e1-9faa-4bed-a27b-ba6b454d6c78}, ! Schedule Type Limits Name
  ,                                       ! Interpolate to Timestep
  6,                                      ! Hour 1
  0,                                      ! Minute 1
  1,                                      ! Value Until Time 1
  22,                                     ! Hour 2
  0,                                      ! Minute 2
  0.25,                                   ! Value Until Time 2
  24,                                     ! Hour 3
  0,                                      ! Minute 3
  1;                                      ! Value Until Time 3

OS:Schedule:Day,
  {5e2e3d7d-33fe-48f5-907a-7895c5986aea}, ! Handle
  Office Infil Quarter On Winter Design Day, ! Name
  {8779c8e1-9faa-4bed-a27b-ba6b454d6c78}, ! Schedule Type Limits Name
  ,                                       ! Interpolate to Timestep
  6,                                      ! Hour 1
  0,                                      ! Minute 1
  1,                                      ! Value Until Time 1
  18,                                     ! Hour 2
  0,                                      ! Minute 2
  0.25,                                   ! Value Until Time 2
  24,                                     ! Hour 3
  0,                                      ! Minute 3
  1;                                      ! Value Until Time 3

OS:Schedule:Rule,
  {934af3e4-5566-4603-adff-842d8cd745c9}, ! Handle
  Office Infil Quarter On Rule 1,         ! Name
  {e5488baf-24ea-4625-af20-d1856ef28942}, ! Schedule Ruleset Name
  0,                                      ! Rule Order
  {b1f303fa-835c-49fd-941d-0dbfe2b35680}, ! Day Schedule Name
  Yes,                                    ! Apply Sunday
  No,                                     ! Apply Monday
  No,                                     ! Apply Tuesday
  No,                                     ! Apply Wednesday
  No,                                     ! Apply Thursday
  No,                                     ! Apply Friday
  No,                                     ! Apply Saturday
  ,                                       ! Apply Holiday
  DateRange,                              ! Date Specification Type
  1,                                      ! Start Month
  1,                                      ! Start Day
  12,                                     ! End Month
  31;                                     ! End Day

OS:Schedule:Day,
  {b1f303fa-835c-49fd-941d-0dbfe2b35680}, ! Handle
  Office Infil Quarter On Rule 1 Day Schedule, ! Name
  {8779c8e1-9faa-4bed-a27b-ba6b454d6c78}, ! Schedule Type Limits Name
  ,                                       ! Interpolate to Timestep
  24,                                     ! Hour 1
  0,                                      ! Minute 1
  1;                                      ! Value Until Time 1

OS:Schedule:Rule,
  {fffc1d5f-566f-42e3-bb06-bf30dec71009}, ! Handle
  Office Infil Quarter On Rule 2,         ! Name
  {e5488baf-24ea-4625-af20-d1856ef28942}, ! Schedule Ruleset Name
  1,                                      ! Rule Order
  {9179b715-aa87-4269-a16f-68929abcd98c}, ! Day Schedule Name
  No,                                     ! Apply Sunday
  No,                                     ! Apply Monday
  No,                                     ! Apply Tuesday
  No,                                     ! Apply Wednesday
  No,                                     ! Apply Thursday
  No,                                     ! Apply Friday
  Yes,                                    ! Apply Saturday
  ,                                       ! Apply Holiday
  DateRange,                              ! Date Specification Type
  1,                                      ! Start Month
  1,                                      ! Start Day
  12,                                     ! End Month
  31;                                     ! End Day

OS:Schedule:Day,
  {9179b715-aa87-4269-a16f-68929abcd98c}, ! Handle
  Office Infil Quarter On Rule 2 Day Schedule, ! Name
  {8779c8e1-9faa-4bed-a27b-ba6b454d6c78}, ! Schedule Type Limits Name
  ,                                       ! Interpolate to Timestep
  6,                                      ! Hour 1
  0,                                      ! Minute 1
  1,                                      ! Value Until Time 1
  18,                                     ! Hour 2
  0,                                      ! Minute 2
  0.25,                                   ! Value Until Time 2
  24,                                     ! Hour 3
  0,                                      ! Minute 3
  1;                                      ! Value Until Time 3

OS:ElectricEquipment:Definition,
  {3cd818a4-643d-44a5-bd7b-d19a7721411f}, !- Handle
  DOE Ref 2004 - Office - BreakRoom Electric Equipment Definition, !- Name
  Watts/Area,                             !- Design Level Calculation Method
  ,                                       !- Design Level {W}
  60.0626201252403,                       !- Watts per Space Floor Area {W/m2}
  ;                                       !- Watts per Person {W/person}

OS:ElectricEquipment,
  {ec5bc934-ea6c-410e-9ddf-b2b549d80a71}, !- Handle
  DOE Ref 2004 - Office - BreakRoom Electric Equipment, !- Name
  {3cd818a4-643d-44a5-bd7b-d19a7721411f}, !- Electric Equipment Definition Name
  {d84c241e-fd20-4a5d-97a5-74389c6b8093}; !- Space or SpaceType Name

OS:Schedule:Ruleset,
  {28cf3f8b-2c15-4584-97bc-99235d99718a}, ! Handle
  Office Bldg Equip,                      ! Name
  {8779c8e1-9faa-4bed-a27b-ba6b454d6c78}, ! Schedule Type Limits Name
  {ca84b967-21e7-45ab-bfa0-86d3fb3e6a13}, ! Default Day Schedule Name