
OS:Version,
  {c83e842d-9dd5-4ede-8583-3dd7844281cc}, !- Handle
  1.6.0;                                  !- Version Identifier

OS:ClimateZones,
  {00dda828-8d9d-4465-bd4d-0c0c556ea992}, !- Handle
  ,                                       !- Active Institution
  ,                                       !- Active Year
  ASHRAE,                                 !- Climate Zone Institution Name 1
  ANSI/ASHRAE Standard 169,               !- Climate Zone Document Name 1
  2006,                                   !- Climate Zone Document Year 1
  ,                                       !- Climate Zone Value 1
  CEC,                                    !- Climate Zone Institution Name 2
  California Climate Zone Descriptions,   !- Climate Zone Document Name 2
  1995,                                   !- Climate Zone Document Year 2
  ;                                       !- Climate Zone Value 2

OS:LifeCycleCost:Parameters,
  {6a4fbf89-81ad-4d65-b366-afd317fb7f33}, !- Handle
  FEMP,                                   !- Analysis Type
  ,                                       !- Discounting Convention
  ,                                       !- Inflation Approach
  ,                                       !- Real Discount Rate
  ,                                       !- Nominal Discount Rate
  ,                                       !- Inflation
  ,                                       !- Base Date Month
  ,                                       !- Base Date Year
  ,                                       !- Service Date Month
  ,                                       !- Service Date Year
  ,                                       !- Length of Study Period in Years
  ,                                       !- Tax Rate
  ,                                       !- Depreciation Method
  Yes;                                    !- Use NIST Fuel Escalation Rates

OS:YearDescription,
  {6db9d436-efda-4d1c-99cd-5e575aafcf98}; !- Handle

OS:Building,
  {aed50290-79f3-49ec-b232-91325ed1b660}, !- Handle
  Building 1,                             !- Name
  ,                                       !- Building Sector Type
  ,                                       !- North Axis {deg}
  ,                                       !- Nominal Floor to Floor Height {m}
  {43a7feaf-ae5f-4400-b10e-04445dad4245}, !- Space Type Name
  {a99d748d-04c2-451e-93a0-f3b48f9a594e}, !- Default Construction Set Name
  ;                                       !- Default Schedule Set Name

OS:Facility,
  {57faeb43-443e-4961-8221-fe11336fdc41}; !- Handle

OS:SpaceType,
  {7099438b-c99f-4608-ba2c-2163aec60fcc}, !- Handle
  DOE Ref 1980-2004 - SecSchl - Auditorium, !- Name
  ,                                       !- Default Construction Set Name
  {c83da338-6d12-47ce-b4ac-07bfa2c510fb}, !- Default Schedule Set Name
  {6663fc4d-f105-44ac-ad51-8faf0fd2676e}, !- Group Rendering Name
  {ad8581cf-7e95-41fb-9b6b-279b6be56fec}, !- Design Specification Outdoor Air Object Name
  SecondarySchool,                        !- Standards Building Type
  Auditorium;                             !- Standards Space Type

OS:Rendering:Color,
  {6663fc4d-f105-44ac-ad51-8faf0fd2676e}, !- Handle
  Rendering Color 1,                      !- Name
  230,                                    !- Rendering Red Value
  196,                                    !- Rendering Green Value
  120;                                    !- Rendering Blue Value

OS:DefaultScheduleSet,
  {c83da338-6d12-47ce-b4ac-07bfa2c510fb}, !- Handle
  DOE Ref 1980-2004 - SecSchl - Auditorium Schedule Set, !- Name
  ,                                       !- Hours of Operation Schedule Name
  {284ce7d5-ca40-4637-80b5-74797897b87c}, !- Number of People Schedule Name
  {cd942ed6-3a81-423d-918e-d801cb5e23bc}, !- People Activity Level Schedule Name
  {e1c3b37d-9b8f-44ac-b3a6-9f600723f40e}, !- Lighting Schedule Name
  {b7398457-74bd-4024-bb20-f38f99880936}, !- Electric Equipment Schedule Name
  ,                                       !- Gas Equipment Schedule Name
  ,                                       !- Hot Water Equipment Schedule Name
  {68763b4c-64f9-4cca-a86c-22b72867be4d}, !- Infiltration Schedule Name
  ,                                       !- Steam Equipment Schedule Name
  ;                                       !- Other Equipment Schedule Name

OS:Lights:Definition,
  {15867993-ecfb-45cb-86a9-21e419e0f1da}, !- Handle
  DOE Ref 1980-2004 - SecSchl - Auditorium Lights Definition, !- Name
  Watts/Area,                             !- Design Level Calculation Method
  ,                                       !- Lighting Level {W}
  12.0555796667149,                       !- Watts per Space Floor Area {W/m2}
  ;                                       !- Watts per Person {W/person}

OS:Lights,
  {bf7001d4-6973-4bff-8e74-fbbafab411e7}, !- Handle
  DOE Ref 1980-2004 - SecSchl - Auditorium Lights, !- Name
  {15867993-ecfb-45cb-86a9-21e419e0f1da}, !- Lights Definition Name
  {7099438b-c99f-4608-ba2c-2163aec60fcc}; !- Space or SpaceType Name

OS:Schedule:Ruleset,
  {e1c3b37d-9b8f-44ac-b3a6-9f600723f40e}, ! Handle
  SecondarySchool Bldg Light,             ! Name
  {8016d121-57b5-45ff-a415-ab8e4306024f}, ! Schedule Type Limits Name
  {bb0f96cf-ce7d-4722-84e7-d0a9d40d9488}, ! Default Day Schedule Name
  {fbef6ba7-e379-4d41-82e9-710358bf458f}, ! Summer Design Day Schedule Name
  {047dc8b6-c585-46af-88ac-6d2448a8eaf7}; ! Winter Design Day Schedule Name

OS:ScheduleTypeLimits,
  {8016d121-57b5-45ff-a415-ab8e4306024f}, ! Handle
  Fraction,                               ! Name
  0,                                      ! Lower Limit Value
  1,                                      ! Upper Limit Value
  CONTINUOUS;                             ! Numeric Type

OS:Schedule:Day,
  {bb0f96cf-ce7d-4722-84e7-d0a9d40d9488}, ! Handle
  SecondarySchool Bldg Light Default Schedule, ! Name
  {8016d121-57b5-45ff-a415-ab8e4306024f}, ! Schedule Type Limits Name
  ,                                       ! Interpolate to Timestep
  7,                                      !- Hour 1
  0,                                      !- Minute 1
  0.1773,                                 !- Value Until Time 1
  21,                                     !- Hour 2
  0,                                      !- Minute 2
  0.9,                                    !- Value Until Time 2
  24,                                     !- Hour 3
  0,                                      !- Minute 3
  0.1773;                                 !- Value Until Time 3

OS:Schedule:Day,
  {fbef6ba7-e379-4d41-82e9-710358bf458f}, ! Handle
  SecondarySchool Bldg Light Summer Design Day, ! Name
  {8016d121-57b5-45ff-a415-ab8e4306024f}, ! Schedule Type Limits Name
  ,                                       ! Interpolate to Timestep
  7,                                      ! Hour 1
  0,                                      ! Minute 1
  0.17730000000000001,                    ! Value Until Time 1
  21,                                     ! Hour 2
  0,                                      ! Minute 2
  0.90000000000000002,                    ! Value Until Time 2
  24,                                     ! Hour 3
  0,                                      ! Minute 3
  0.17730000000000001;                    ! Value Until Time 3

OS:Schedule:Day,
  {047dc8b6-c585-46af-88ac-6d2448a8eaf7}, ! Handle
  SecondarySchool Bldg Light Winter Design Day, ! Name
  {8016d121-57b5-45ff-a415-ab8e4306024f}, ! Schedule Type Limits Name
  ,                                       ! Interpolate to Timestep
  24,                                     ! Hour 1
  0,                                      ! Minute 1
  0.17730000000000001;                    ! Value Until Time 1

OS:Schedule:Rule,
  {f656765d-3d7e-4199-87be-315baa1a0bc3}, ! Handle
  SecondarySchool Bldg Light Rule 1,      ! Name
  {e1c3b37d-9b8f-44ac-b3a6-9f600723f40e}, ! Schedule Ruleset Name
  0,                                      ! Rule Order
  {8cc9033d-2521-4032-8539-f6d31d9ee1d6}, ! Day Schedule Name
  Yes,                                    ! Apply Sunday
  No,                                     ! Apply Monday
  No,                                     ! Apply Tuesday
  No,                                     ! Apply Wednesday
  No,                                     ! Apply Thursday
  No,                                     ! Apply Friday
  Yes,                                    ! Apply Saturday
  ,                                       ! Apply Holiday
  DateRange,                              ! Date Specification Type
  9,                                      ! Start Month
  1,                                      ! Start Day
  12,                                     ! End Month
  31;                                     ! End Day

OS:Schedule:Day,
  {8cc9033d-2521-4032-8539-f6d31d9ee1d6}, ! Handle
  SecondarySchool Bldg Light Rule 1 Day Schedule, ! Name
  {8016d121-57b5-45ff-a415-ab8e4306024f}, ! Schedule Type Limits Name
  ,                                       ! Interpolate to Timestep
  24,                                     ! Hour 1
  0,                                      ! Minute 1
  0.17730000000000001;                    ! Value Until Time 1

OS:Schedule:Rule,
  {fe36a433-4a35-4b13-95e9-2e6ca9b0f32a}, ! Handle
  SecondarySchool Bldg Light Rule 2,      ! Name
  {e1c3b37d-9b8f-44ac-b3a6-9f600723f40e}, ! Schedule Ruleset Name
  1,                                      ! Rule Order
  {9497393f-cf4e-410d-8c61-84e2b294ffed}, ! Day Schedule Name
  No,                                     ! Apply Sunday
  Yes,                                    ! Apply Monday
  Yes,                                    ! Apply Tuesday
  Yes,                                    ! Apply Wednesday
  Yes,                                    ! Apply Thursday
  Yes,                                    ! Apply Friday
  No,                                     ! Apply Saturday
  ,                                       ! Apply Holiday
  DateRange,                              ! Date Specification Type
  9,                                      ! Start Month
  1,                                      ! Start Day
  12,                                     ! End Month
  31;                                     ! End Day

OS:Schedule:Day,
  {9497393f-cf4e-410d-8c61-84e2b294ffed}, ! Handle
  SecondarySchool Bldg Light Rule 2 Day Schedule, ! Name
  {8016d121-57b5-45ff-a415-ab8e4306024f}, ! Schedule Type Limits Name
  ,                                       ! Interpolate to Timestep
  7,                                      ! Hour 1
  0,                                      ! Minute 1
  0.17730000000000001,                    ! Value Until Time 1
  21,                                     ! Hour 2
  0,                                      ! Minute 2
  0.90000000000000002,                    ! Value Until Time 2
  24,                                     ! Hour 3
  0,                                      ! Minute 3
  0.17730000000000001;                    ! Value Until Time 3

OS:Schedule:Rule,
  {38ace2a8-646d-4bc2-b898-4d8f9df7e558}, ! Handle
  SecondarySchool Bldg Light Rule 3,      ! Name
  {e1c3b37d-9b8f-44ac-b3a6-9f600723f40e}, ! Schedule Ruleset Name
  2,                                      ! Rule Order
  {b16461bb-ed35-4751-b178-ff7e13f52c6b}, ! Day Schedule Name
  Yes,                                    ! Apply Sunday
  No,                                     ! Apply Monday
  No,                                     ! Apply Tuesday
  No,                                     ! Apply Wednesday
  No,                                     ! Apply Thursday
  No,                                     ! Apply Friday
  Yes,                                    ! Apply Saturday
  ,                                       ! Apply Holiday
  DateRange,                              ! Date Specification Type
  7,                                      ! Start Month
  1,                                      ! Start Day
  9,                                      ! End Month
  1;                                      ! End Day

OS:Schedule:Day,
  {b16461bb-ed35-4751-b178-ff7e13f52c6b}, ! Handle
  SecondarySchool Bldg Light Rule 3 Day Schedule, ! Name
  {8016d121-57b5-45ff-a415-ab8e4306024f}, ! Schedule Type Limits Name
  ,                                       ! Interpolate to Timestep
  24,                                     ! Hour 1
  0,                                      ! Minute 1
  0.17730000000000001;                    ! Value Until Time 1

OS:Schedule:Rule,
  {ec229476-01c0-4e53-959b-115ac1bb0c75}, ! Handle
  SecondarySchool Bldg Light Rule 4,      ! Name
  {e1c3b37d-9b8f-44ac-b3a6-9f600723f40e}, ! Schedule Ruleset Name
  3,                                      ! Rule Order
  {9818e241-1a6f-483b-8dc4-f2df41852b1a}, ! Day Schedule Name
  No,                                     ! Apply Sunday
  Yes,                                    ! Apply Monday
  Yes,                                    ! Apply Tuesday
  Yes,                                    ! Apply Wednesday
  Yes,                                    ! Apply Thursday
  Yes,                                    ! Apply Friday
  No,                                     ! Apply Saturday
  ,                                       ! Apply Holiday
  DateRange,                              ! Date Specification Type
  7,                                      ! Start Month
  1,                                      ! Start Day
  9,                                      ! End Month
  1;                                      ! End Day

OS:Schedule:Day,
  {9818e241-1a6f-483b-8dc4-f2df41852b1a}, ! Handle
  SecondarySchool Bldg Light Rule 4 Day Schedule, ! Name
  {8016d121-57b5-45ff-a415-ab8e4306024f}, ! Schedule Type Limits Name
  ,                                       ! Interpolate to Timestep
  8,                                      ! Hour 1
  0,                                      ! Minute 1
  0.17730000000000001,                    ! Value Until Time 1
  20,                                     ! Hour 2
  0,                                      ! Minute 2
  0.5,                                    ! Value Until Time 2
  24,                                     ! Hour 3
  0,                                      ! Minute 3
  0.17730000000000001;                    ! Value Until Time 3

OS:Schedule:Rule,
  {520f7da7-c071-4057-ae74-be30eb04951f}, ! Handle
  SecondarySchool Bldg Light Rule 5,      ! Name
  {e1c3b37d-9b8f-44ac-b3a6-9f600723f40e}, ! Schedule Ruleset Name
  4,                                      ! Rule Order
  {47eb947a-fb79-408d-9c18-250d9b4f3928}, ! Day Schedule Name
  Yes,                                    ! Apply Sunday
  No,                                     ! Apply Monday
  No,                                     ! Apply Tuesday
  No,                                     ! Apply Wednesday
  No,                                     ! Apply Thursday
  No,                                     ! Apply Friday
  Yes,                                    ! Apply Saturday
  ,                                       ! Apply Holiday
  DateRange,                              ! Date Specification Type
  1,                                      ! Start Month
  1,                                      ! Start Day
  6,                                      ! End Month
  30;                                     ! End Day

OS:Schedule:Day,
  {47eb947a-fb79-408d-9c18-250d9b4f3928}, ! Handle
  SecondarySchool Bldg Light Rule 5 Day Schedule, ! Name
  {8016d121-57b5-45ff-a415-ab8e4306024f}, ! Schedule Type Limits Name
  ,                                       ! Interpolate to Timestep
  24,                                     ! Hour 1
  0,                                      ! Minute 1
  0.17730000000000001;                    ! Value Until Time 1

OS:DesignSpecification:OutdoorAir,
  {ad8581cf-7e95-41fb-9b6b-279b6be56fec}, !- Handle
  DOE Ref 1980-2004 - SecSchl - Auditorium Ventilation, !- Name
  Sum,                                    !- Outdoor Air Method
  0.007079211648,                         !- Outdoor Air Flow per Person {m3/s-person}
  ,                                       !- Outdoor Air Flow per Floor Area {m3/s-m2}
  ,                                       !- Outdoor Air Flow Rate {m3/s}
  ,                                       !- Outdoor Air Flow Air Changes per Hour {1/hr}
  ;                                       !- Outdoor Air Flow Rate Fraction Schedule Name

OS:People:Definition,
  {8683aa58-18f1-43ab-bd0a-3ed1d226b86d}, !- Handle
  DOE Ref 1980-2004 - SecSchl - Auditorium People Definition, !- Name
  People/Area,                            !- Number of People Calculation Method
  ,                                       !- Number of People {people}
  1.000397834129,                         !- People per Space Floor Area {person/m2}
  ,                                       !- Space Floor Area per Person {m2/person}
  0.3;                                    !- Fraction Radiant

OS:People,
  {939f938b-4472-4dc4-b750-a0380c8c302a}, !- Handle
  DOE Ref 1980-2004 - SecSchl - Auditorium People, !- Name
  {8683aa58-18f1-43ab-bd0a-3ed1d226b86d}, !- People Definition Name
  {7099438b-c99f-4608-ba2c-2163aec60fcc}; !- Space or SpaceType Name

OS:Schedule:Ruleset,
  {284ce7d5-ca40-4637-80b5-74797897b87c}, ! Handle
  SecondarySchool Auditorium Occ,         ! Name
  {8016d121-57b5-45ff-a415-ab8e4306024f}, ! Schedule Type Limits Name
  {666962d7-33e1-4fb0-b68b-de89e0affe55}, ! Default Day Schedule Name
  {ee1c0497-54ba-40d4-b4fe-6929e842c6ad}, ! Summer Design Day Schedule Name
  {14f66eef-2177-49b9-a526-79aae05714d9}; ! Winter Design Day Schedule Name

OS:Schedule:Day,
  {666962d7-33e1-4fb0-b68b-de89e0affe55}, ! Handle
  SecondarySchool Auditorium Occ Default Schedule, ! Name
  {8016d121-57b5-45ff-a415-ab8e4306024f}, ! Schedule Type Limits Name
  ,                                       ! Interpolate to Timestep
  8,                                      !- Hour 1
  0,                                      !- Minute 1
  0,                                      !- Value Until Time 1
  15,                                     !- Hour 2
  0,                                      !- Minute 2
  0.25,                                   !- Value Until Time 2
  17,                                     !- Hour 3
  0,                                      !- Minute 3
  0.95,                                   !- Value Until Time 3
  20,                                     !- Hour 4
  0,                                      !- Minute 4
  0.1,                                    !- Value Until Time 4
  24,                                     !- Hour 5
  0,                                      !- Minute 5
  0;                                      !- Value Until Time 5

OS:Schedule:Day,
  {ee1c0497-54ba-40d4-b4fe-6929e842c6ad}, ! Handle
  SecondarySchool Auditorium Occ Summer Design Day, ! Name
  {8016d121-57b5-45ff-a415-ab8e4306024f}, ! Schedule Type Limits Name
  ,                                       ! Interpolate to Timestep
  8,                                      ! Hour 1
  0,                                      ! Minute 1
  0,                                      ! Value Until Time 1
  15,                                     ! Hour 2
  0,                                      ! Minute 2
  0.25,                                   ! Value Until Time 2
  17,                                     ! Hour 3
  0,                                      ! Minute 3
  0.94999999999999996,                    ! Value Until Time 3
  20,                                     ! Hour 4
  0,                                      ! Minute 4
  0.10000000000000001,                    ! Value Until Time 4
  24,                                     ! Hour 5
  0,                                      ! Minute 5
  0;                                      ! Value Until Time 5

OS:Schedule:Day,
  {14f66eef-2177-49b9-a526-79aae05714d9}, ! Handle
  SecondarySchool Auditorium Occ Winter Design Day, ! Name
  {8016d121-57b5-45ff-a415-ab8e4306024f}, ! Schedule Type Limits Name
  ,                                       ! Interpolate to Timestep
  24,                                     ! Hour 1
  0,                                      ! Minute 1
  0;                                      ! Value Until Time 1

OS:Schedule:Rule,
  {872d4753-cba4-470e-bd2d-ee0c746ff126}, ! Handle
  SecondarySchool Auditorium Occ Rule 1,  ! Name
  {284ce7d5-ca40-4637-80b5-74797897b87c}, ! Schedule Ruleset Name
  0,                                      ! Rule Order
  {565aba9a-7638-4e2b-9824-5188fb6e45cd}, ! Day Schedule Name
  Yes,                                    ! Apply Sunday
  No,                                     ! Apply Monday
  No,                                     ! Apply Tuesday
  No,                                     ! Apply Wednesday
  No,                                     ! Apply Thursday
  No,                                     ! Apply Friday
  Yes,                                    ! Apply Saturday
  ,                                       ! Apply Holiday
  DateRange,                              ! Date Specification Type
  9,                                      ! Start Month
  1,                                      ! Start Day
  12,                                     ! End Month
  31;                                     ! End Day

OS:Schedule:Day,
  {565aba9a-7638-4e2b-9824-5188fb6e45cd}, ! Handle
  SecondarySchool Auditorium Occ Rule 1 Day Schedule, ! Name
  {8016d121-57b5-45ff-a415-ab8e4306024f}, ! Schedule Type Limits Name
  ,                                       ! Interpolate to Timestep
  24,                                     ! Hour 1
  0,                                      ! Minute 1
  0;                                      ! Value Until Time 1

OS:Schedule:Rule,
  {a90182ff-0afe-44fc-b69e-13d826d27b04}, ! Handle
  SecondarySchool Auditorium Occ Rule 2,  ! Name
  {284ce7d5-ca40-4637-80b5-74797897b87c}, ! Schedule Ruleset Name
  1,                                      ! Rule Order
  {99897a98-e09f-4050-ae1d-ee6315408ca1}, ! Day Schedule Name
  No,                                     ! Apply Sunday
  Yes,                                    ! Apply Monday
  Yes,                                    ! Apply Tuesday
  Yes,                                    ! Apply Wednesday
  Yes,                                    ! Apply Thursday
  Yes,                                    ! Apply Friday
  No,                                     ! Apply Saturday
  ,                                       ! Apply Holiday
  DateRange,                              ! Date Specification Type
  9,                                      ! Start Month
  1,                                      ! Start Day
  12,                                     ! End Month
  31;                                     ! End Day

OS:Schedule:Day,
  {99897a98-e09f-4050-ae1d-ee6315408ca1}, ! Handle
  SecondarySchool Auditorium Occ Rule 2 Day Schedule, ! Name
  {8016d121-57b5-45ff-a415-ab8e4306024f}, ! Schedule Type Limits Name
  ,                                       ! Interpolate to Timestep
  8,                                      ! Hour 1
  0,                                      ! Minute 1
  0,                                      ! Value Until Time 1
  15,                                     ! Hour 2
  0,                                      ! Minute 2
  0.25,                                   ! Value Until Time 2
  17,                                     ! Hour 3
  0,                                      ! Minute 3
  0.94999999999999996,                    ! Value Until Time 3
  20,                                     ! Hour 4
  0,                                      ! Minute 4
  0.10000000000000001,                    ! Value Until Time 4
  24,                                     ! Hour 5
  0,                                      ! Minute 5
  0;                                      ! Value Until Time 5

OS:Schedule:Rule,
  {1025a64e-3e0b-4fae-b33e-5e178e20bea8}, ! Handle
  SecondarySchool Auditorium Occ Rule 3,  ! Name
  {284ce7d5-ca40-4637-80b5-74797897b87c}, ! Schedule Ruleset Name
  2,                                      ! Rule Order
  {2677cb3f-5f81-41d0-b90e-f89375fa5ca6}, ! Day Schedule Name
  Yes,                                    ! Apply Sunday
  No,                                     ! Apply Monday
  No,                                     ! Apply Tuesday
  No,                                     ! Apply Wednesday
  No,                                     ! Apply Thursday
  No,                                     ! Apply Friday
  Yes,                                    ! Apply Saturday
  ,                                       ! Apply Holiday
  DateRange,                              ! Date Specification Type
  7,                                      ! Start Month
  1,                                      ! Start Day
  9,                                      ! End Month
  1;                                      ! End Day

OS:Schedule:Day,
  {2677cb3f-5f81-41d0-b90e-f89375fa5ca6}, ! Handle
  SecondarySchool Auditorium Occ Rule 3 Day Schedule, ! Name
  {8016d121-57b5-45ff-a415-ab8e4306024f}, ! Schedule Type Limits Name
  ,                                       ! Interpolate to Timestep
  24,                                     ! Hour 1
  0,                                      ! Minute 1
  0;                                      ! Value Until Time 1

OS:Schedule:Rule,
  {6fe447a6-b6b0-442b-8b06-363facb1492e}, ! Handle
  SecondarySchool Auditorium Occ Rule 4,  ! Name
  {284ce7d5-ca40-4637-80b5-74797897b87c}, ! Schedule Ruleset Name
  3,                                      ! Rule Order
  {7703aca4-b40b-464e-afef-d259c182cd34}, ! Day Schedule Name
  No,                                     ! Apply Sunday
  Yes,                                    ! Apply Monday
  Yes,                                    ! Apply Tuesday
  Yes,                                    ! Apply Wednesday
  Yes,                                    ! Apply Thursday
  Yes,                                    ! Apply Friday
  No,                                     ! Apply Saturday
  ,                                       ! Apply Holiday
  DateRange,                              ! Date Specification Type
  7,                                      ! Start Month
  1,                                      ! Start Day
  9,                                      ! End Month
  1;                                      ! End Day

OS:Schedule:Day,
  {7703aca4-b40b-464e-afef-d259c182cd34}, ! Handle
  SecondarySchool Auditorium Occ Rule 4 Day Schedule, ! Name
  {8016d121-57b5-45ff-a415-ab8e4306024f}, ! Schedule Type Limits Name
  ,                                       ! Interpolate to Timestep
  8,                                      ! Hour 1
  0,                                      ! Minute 1
  0,                                      ! Value Until Time 1
  17,                                     ! Hour 2
  0,                                      ! Minute 2
  0.14999999999999999,                    ! Value Until Time 2
  19,                                     ! Hour 3
  0,                                      ! Minute 3
  0.34999999999999998,                    ! Value Until Time 3
  24,                                     ! Hour 4
  0,                                      ! Minute 4
  0;                                      ! Value Until Time 4

OS:Schedule:Rule,
  {7e863613-0988-4a5d-af0c-ba2a9e1f2082}, ! Handle
  SecondarySchool Auditorium Occ Rule 5,  ! Name
  {284ce7d5-ca40-4637-80b5-74797897b87c}, ! Schedule Ruleset Name
  4,                                      ! Rule Order
  {ce13e551-bad2-4320-9026-496ad20c761b}, ! Day Schedule Name
  Yes,                                    ! Apply Sunday
  No,                                     ! Apply Monday
  No,                                     ! Apply Tuesday
  No,                                     ! Apply Wednesday
  No,                                     ! Apply Thursday
  No,                                     ! Apply Friday
  Yes,                                    ! Apply Saturday
  ,                                       ! Apply Holiday
  DateRange,                              ! Date Specification Type
  1,                                      ! Start Month
  1,                                      ! Start Day
  6,                                      ! End Month
  30;                                     ! End Day

OS:Schedule:Day,
  {ce13e551-bad2-4320-9026-496ad20c761b}, ! Handle
  SecondarySchool Auditorium Occ Rule 5 Day Schedule, ! Name
  {8016d121-57b5-45ff-a415-ab8e4306024f}, ! Schedule Type Limits Name
  ,                                       ! Interpolate to Timestep
  24,                                     ! Hour 1
  0,                                      ! Minute 1
  0;                                      ! Value Until Time 1

OS:Schedule:Ruleset,
  {cd942ed6-3a81-423d-918e-d801cb5e23bc}, ! Handle
  SecondarySchool Activity,               ! Name
  {086224a0-0f71-46f9-a082-69aa0ba37083}, ! Schedule Type Limits Name
  {24805a20-55b4-4ed9-aca1-a9534b058626}, ! Default Day Schedule Name
  {bcfeaf06-6922-4da2-90a2-3a3701615650}, ! Summer Design Day Schedule Name
  {25466785-463b-456e-b876-b3a757a43434}; ! Winter Design Day Schedule Name

OS:ScheduleTypeLimits,
  {086224a0-0f71-46f9-a082-69aa0ba37083}, !- Handle
  ActivityLevel 2,                        !- Name
  0,                                      !- Lower Limit Value {BasedOnField A4}
  ,                                       !- Upper Limit Value {BasedOnField A4}
  Continuous,                             !- Numeric Type
  ActivityLevel;                          !- Unit Type

OS:Schedule:Day,
  {24805a20-55b4-4ed9-aca1-a9534b058626}, ! Handle
  SecondarySchool Activity Default Schedule, ! Name
  {086224a0-0f71-46f9-a082-69aa0ba37083}, ! Schedule Type Limits Name
  ,                                       ! Interpolate to Timestep