
OS:Version,
  {c83e842d-9dd5-4ede-8583-3dd7844281cc}, !- Handle
  1.6.0;                                  !- Version Identifier

OS:ClimateZones,
  {00dda828-8d9d-4465-bd4d-0c0c556ea992}, !- Handle
  ,                                       !- Active Institution
  ,                                       !- Active Year
  ASHRAE,                                 !- Climate Zone Institution Name 1
  ANSI/ASHRAE Standard 169,               !- Climate Zone Document Name 1
  2006,                                   !- Climate Zone Document Year 1
  ,                                       !- Climate Zone Value 1
  CEC,                                    !- Climate Zone Institution Name 2
  California Climate Zone Descriptions,   !- Climate Zone Document Name 2
  1995,                                   !- Climate Zone Document Year 2
  ;                                       !- Climate Zone Value 2

OS:LifeCycleCost:Parameters,
  {6a4fbf89-81ad-4d65-b366-afd317fb7f33}, !- Handle
  FEMP,                                   !- Analysis Type
  ,                                       !- Discounting Convention
  ,                                       !- Inflation Approach
  ,                                       !- Real Discount Rate
  ,                                       !- Nominal Discount Rate
  ,                                       !- Inflation
  ,                                       !- Base Date Month
  ,                                       !- Base Date Year
  ,                                       !- Service Date Month
  ,                                       !- Service Date Year
  ,                                       !- Length of Study Period in Years
  ,                                       !- Tax Rate
  ,                                       !- Depreciation Method
  Yes;                                    !- Use NIST Fuel Escalation Rates

OS:YearDescription,
  {6db9d436-efda-4d1c-99cd-5e575aafcf98}; !- Handle

OS:Building,
  {aed50290-79f3-49ec-b232-91325ed1b660}, !- Handle
  Building 1,                             !- Name
  ,                                       !- Building Sector Type
  ,                                       !- North Axis {deg}
  ,                                       !- Nominal Floor to Floor Height {m}
  {cc6d1c7c-c43a-4a38-9692-e7f9a836303d}, !- Space Type Name
  {8db8ad77-fa92-4bf7-964b-70cf9f54e821}, !- Default Construction Set Name
  ;                                       !- Default Schedule Set Name

OS:Facility,
  {57faeb43-443e-4961-8221-fe11336fdc41}; !- Handle

OS:SpaceType,
  {6ecdf801-a0e9-4c41-a798-99e17a8955d2}, !- Handle
  DOE Ref 1980-2004 - SecSchl - Auditorium, !- Name
  ,                                       !- Default Construction Set Name
  {b8a36a7c-c0c0-428d-81e7-cb3210301fe5}, !- Default Schedule Set Name
  {c6fa8440-f9bd-4dbd-83fd-95293c41337e}, !- Group Rendering Name
  {54df29a5-5fef-44c0-81dd-4941595285df}, !- Design Specification Outdoor Air Object Name
  SecondarySchool,                        !- Standards Building Type
  Auditorium;                             !- Standards Space Type

OS:Rendering:Color,
  {c6fa8440-f9bd-4dbd-83fd-95293c41337e}, !- Handle
  Rendering Color 1,                      !- Name
  230,                                    !- Rendering Red Value
  196,                                    !- Rendering Green Value
  120;                                    !- Rendering Blue Value

OS:DefaultScheduleSet,
  {b8a36a7c-c0c0-428d-81e7-cb3210301fe5}, !- Handle
  DOE Ref 1980-2004 - SecSchl - Auditorium Schedule Set, !- Name
  ,                                       !- Hours of Operation Schedule Name
  {30bc2959-65fd-4bc7-bd45-39bf6413a1f2}, !- Number of People Schedule Name
  {cf59c81d-6b40-4b85-b116-79c0c0633da9}, !- People Activity Level Schedule Name
  {67575165-301e-4c0c-b773-db322411288e}, !- Lighting Schedule Name
  {b8743c64-95fd-4f18-bb33-10bb994fd5f9}, !- Electric Equipment Schedule Name
  ,                                       !- Gas Equipment Schedule Name
  ,                                       !- Hot Water Equipment Schedule Name
  {c1dab43b-aa03-43ce-9eba-07d03c029f29}, !- Infiltration Schedule Name
  ,                                       !- Steam Equipment Schedule Name
  ;                                       !- Other Equipment Schedule Name

OS:Lights:Definition,
  {20eb8467-bf6d-406d-ad90-e05d34cca6a5}, !- Handle
  DOE Ref 1980-2004 - SecSchl - Auditorium Lights Definition, !- Name
  Watts/Area,                             !- Design Level Calculation Method
  ,                                       !- Lighting Level {W}
  12.0555796667149,                       !- Watts per Space Floor Area {W/m2}
  ;                                       !- Watts per Person {W/person}

OS:Lights,
  {87f981f6-efc3-4215-b9ef-0eb646204862}, !- Handle
  DOE Ref 1980-2004 - SecSchl - Auditorium Lights, !- Name
  {20eb8467-bf6d-406d-ad90-e05d34cca6a5}, !- Lights Definition Name
  {6ecdf801-a0e9-4c41-a798-99e17a8955d2}; !- Space or SpaceType Name

OS:Schedule:Ruleset,
  {67575165-301e-4c0c-b773-db322411288e}, ! Handle
  SecondarySchool Bldg Light,             ! Name
  {4985a4b5-42f6-4763-8b1d-92c5c40dd83c}, ! Schedule Type Limits Name
  {9942a408-8ba7-4584-85a0-65bcdad149b2}, ! Default Day Schedule Name
  {ca9a665c-f950-4c6e-9ceb-31c3cdd4c478}, ! Summer Design Day Schedule Name
  {2c495e9b-b167-4432-af8e-45ba080fcf08}; ! Winter Design Day Schedule Name

OS:ScheduleTypeLimits,
  {4985a4b5-42f6-4763-8b1d-92c5c40dd83c}, ! Handle
  Fraction,                               ! Name
  0,                                      ! Lower Limit Value
  1,                                      ! Upper Limit Value
  CONTINUOUS;                             ! Numeric Type

OS:Schedule:Day,
  {9942a408-8ba7-4584-85a0-65bcdad149b2}, ! Handle
  SecondarySchool Bldg Light Default Schedule, ! Name
  {4985a4b5-42f6-4763-8b1d-92c5c40dd83c}, ! Schedule Type Limits Name
  ,                                       ! Interpolate to Timestep
  7,                                      !- Hour 1
  0,                                      !- Minute 1
  0.1773,                                 !- Value Until Time 1
  21,                                     !- Hour 2
  0,                                      !- Minute 2
  0.9,                                    !- Value Until Time 2
  24,                                     !- Hour 3
  0,                                      !- Minute 3
  0.1773;                                 !- Value Until Time 3

OS:Schedule:Day,
  {ca9a665c-f950-4c6e-9ceb-31c3cdd4c478}, ! Handle
  SecondarySchool Bldg Light Summer Design Day, ! Name
  {4985a4b5-42f6-4763-8b1d-92c5c40dd83c}, ! Schedule Type Limits Name
  ,                                       ! Interpolate to Timestep
  7,                                      ! Hour 1
  0,                                      ! Minute 1
  0.17730000000000001,                    ! Value Until Time 1
  21,                                     ! Hour 2
  0,                                      ! Minute 2
  0.90000000000000002,                    ! Value Until Time 2
  24,                                     ! Hour 3
  0,                                      ! Minute 3
  0.17730000000000001;                    ! Value Until Time 3

OS:Schedule:Day,
  {2c495e9b-b167-4432-af8e-45ba080fcf08}, ! Handle
  SecondarySchool Bldg Light Winter Design Day, ! Name
  {4985a4b5-42f6-4763-8b1d-92c5c40dd83c}, ! Schedule Type Limits Name
  ,                                       ! Interpolate to Timestep
  24,                                     ! Hour 1
  0,                                      ! Minute 1
  0.17730000000000001;                    ! Value Until Time 1

OS:Schedule:Rule,
  {cbf68653-33b1-49d4-ab09-85a9540928de}, ! Handle
  SecondarySchool Bldg Light Rule 1,      ! Name
  {67575165-301e-4c0c-b773-db322411288e}, ! Schedule Ruleset Name
  0,                                      ! Rule Order
  {ecdac4d7-091b-4f3e-a38d-0afd93efd311}, ! Day Schedule Name
  Yes,                                    ! Apply Sunday
  No,                                     ! Apply Monday
  No,                                     ! Apply Tuesday
  No,                                     ! Apply Wednesday
  No,                                     ! Apply Thursday
  No,                                     ! Apply Friday
  Yes,                                    ! Apply Saturday
  ,                                       ! Apply Holiday
  DateRange,                              ! Date Specification Type
  9,                                      ! Start Month
  1,                                      ! Start Day
  12,                                     ! End Month
  31;                                     ! End Day

OS:Schedule:Day,
  {ecdac4d7-091b-4f3e-a38d-0afd93efd311}, ! Handle
  SecondarySchool Bldg Light Rule 1 Day Schedule, ! Name
  {4985a4b5-42f6-4763-8b1d-92c5c40dd83c}, ! Schedule Type Limits Name
  ,                                       ! Interpolate to Timestep
  24,                                     ! Hour 1
  0,                                      ! Minute 1
  0.17730000000000001;                    ! Value Until Time 1

OS:Schedule:Rule,
  {83c40a23-081a-4025-9a0e-9fa8513cd874}, ! Handle
  SecondarySchool Bldg Light Rule 2,      ! Name
  {67575165-301e-4c0c-b773-db322411288e}, ! Schedule Ruleset Name
  1,                                      ! Rule Order
  {93b3b397-7fe3-4c53-bb8d-6d56352a15d7}, ! Day Schedule Name
  No,                                     ! Apply Sunday
  Yes,                                    ! Apply Monday
  Yes,                                    ! Apply Tuesday
  Yes,                                    ! Apply Wednesday
  Yes,                                    ! Apply Thursday
  Yes,                                    ! Apply Friday
  No,                                     ! Apply Saturday
  ,                                       ! Apply Holiday
  DateRange,                              ! Date Specification Type
  9,                                      ! Start Month
  1,                                      ! Start Day
  12,                                     ! End Month
  31;                                     ! End Day

OS:Schedule:Day,
  {93b3b397-7fe3-4c53-bb8d-6d56352a15d7}, ! Handle
  SecondarySchool Bldg Light Rule 2 Day Schedule, ! Name
  {4985a4b5-42f6-4763-8b1d-92c5c40dd83c}, ! Schedule Type Limits Name
  ,                                       ! Interpolate to Timestep
  7,                                      ! Hour 1
  0,                                      ! Minute 1
  0.17730000000000001,                    ! Value Until Time 1
  21,                                     ! Hour 2
  0,                                      ! Minute 2
  0.90000000000000002,                    ! Value Until Time 2
  24,                                     ! Hour 3
  0,                                      ! Minute 3
  0.17730000000000001;                    ! Value Until Time 3

OS:Schedule:Rule,
  {f52c5702-e759-4b61-a560-9c7893548f83}, ! Handle
  SecondarySchool Bldg Light Rule 3,      ! Name
  {67575165-301e-4c0c-b773-db322411288e}, ! Schedule Ruleset Name
  2,                                      ! Rule Order
  {3d3e92c2-b638-4277-8b87-788101d2b154}, ! Day Schedule Name
  Yes,                                    ! Apply Sunday
  No,                                     ! Apply Monday
  No,                                     ! Apply Tuesday
  No,                                     ! Apply Wednesday
  No,                                     ! Apply Thursday
  No,                                     ! Apply Friday
  Yes,                                    ! Apply Saturday
  ,                                       ! Apply Holiday
  DateRange,                              ! Date Specification Type
  7,                                      ! Start Month
  1,                                      ! Start Day
  9,                                      ! End Month
  1;                                      ! End Day

OS:Schedule:Day,
  {3d3e92c2-b638-4277-8b87-788101d2b154}, ! Handle
  SecondarySchool Bldg Light Rule 3 Day Schedule, ! Name
  {4985a4b5-42f6-4763-8b1d-92c5c40dd83c}, ! Schedule Type Limits Name
  ,                                       ! Interpolate to Timestep
  24,                                     ! Hour 1
  0,                                      ! Minute 1
  0.17730000000000001;                    ! Value Until Time 1

OS:Schedule:Rule,
  {cdffd252-62d4-4d27-ba6f-bc1c63721168}, ! Handle
  SecondarySchool Bldg Light Rule 4,      ! Name
  {67575165-301e-4c0c-b773-db322411288e}, ! Schedule Ruleset Name
  3,                                      ! Rule Order
  {938e6238-c84d-44f8-b10f-157fd6500c3a}, ! Day Schedule Name
  No,                                     ! Apply Sunday
  Yes,                                    ! Apply Monday
  Yes,                                    ! Apply Tuesday
  Yes,                                    ! Apply Wednesday
  Yes,                                    ! Apply Thursday
  Yes,                                    ! Apply Friday
  No,                                     ! Apply Saturday
  ,                                       ! Apply Holiday
  DateRange,                              ! Date Specification Type
  7,                                      ! Start Month
  1,                                      ! Start Day
  9,                                      ! End Month
  1;                                      ! End Day

OS:Schedule:Day,
  {938e6238-c84d-44f8-b10f-157fd6500c3a}, ! Handle
  SecondarySchool Bldg Light Rule 4 Day Schedule, ! Name
  {4985a4b5-42f6-4763-8b1d-92c5c40dd83c}, ! Schedule Type Limits Name
  ,                                       ! Interpolate to Timestep
  8,                                      ! Hour 1
  0,                                      ! Minute 1
  0.17730000000000001,                    ! Value Until Time 1
  20,                                     ! Hour 2
  0,                                      ! Minute 2
  0.5,                                    ! Value Until Time 2
  24,                                     ! Hour 3
  0,                                      ! Minute 3
  0.17730000000000001;                    ! Value Until Time 3

OS:Schedule:Rule,
  {0f13dd41-7a24-4e4a-8d66-c13f02f53c76}, ! Handle
  SecondarySchool Bldg Light Rule 5,      ! Name
  {67575165-301e-4c0c-b773-db322411288e}, ! Schedule Ruleset Name
  4,                                      ! Rule Order
  {78144666-23dc-44f0-afe6-e56ced4567af}, ! Day Schedule Name
  Yes,                                    ! Apply Sunday
  No,                                     ! Apply Monday
  No,                                     ! Apply Tuesday
  No,                                     ! Apply Wednesday
  No,                                     ! Apply Thursday
  No,                                     ! Apply Friday
  Yes,                                    ! Apply Saturday
  ,                                       ! Apply Holiday
  DateRange,                              ! Date Specification Type
  1,                                      ! Start Month
  1,                                      ! Start Day
  6,                                      ! End Month
  30;                                     ! End Day

OS:Schedule:Day,
  {78144666-23dc-44f0-afe6-e56ced4567af}, ! Handle
  SecondarySchool Bldg Light Rule 5 Day Schedule, ! Name
  {4985a4b5-42f6-4763-8b1d-92c5c40dd83c}, ! Schedule Type Limits Name
  ,                                       ! Interpolate to Timestep
  24,                                     ! Hour 1
  0,                                      ! Minute 1
  0.17730000000000001;                    ! Value Until Time 1

OS:DesignSpecification:OutdoorAir,
  {54df29a5-5fef-44c0-81dd-4941595285df}, !- Handle
  DOE Ref 1980-2004 - SecSchl - Auditorium Ventilation, !- Name
  Sum,                                    !- Outdoor Air Method
  0.007079211648,                         !- Outdoor Air Flow per Person {m3/s-person}
  ,                                       !- Outdoor Air Flow per Floor Area {m3/s-m2}
  ,                                       !- Outdoor Air Flow Rate {m3/s}
  ,                                       !- Outdoor Air Flow Air Changes per Hour {1/hr}
  ;                                       !- Outdoor Air Flow Rate Fraction Schedule Name

OS:People:Definition,
  {f706bb0a-a9c3-4dac-9b26-3afee5c2ea7a}, !- Handle
  DOE Ref 1980-2004 - SecSchl - Auditorium People Definition, !- Name
  People/Area,                            !- Number of People Calculation Method
  ,                                       !- Number of People {people}
  1.000397834129,                         !- People per Space Floor Area {person/m2}
  ,                                       !- Space Floor Area per Person {m2/person}
  0.3;                                    !- Fraction Radiant

OS:People,
  {8053a64c-f058-4287-9461-ae163e50023b}, !- Handle
  DOE Ref 1980-2004 - SecSchl - Auditorium People, !- Name
  {f706bb0a-a9c3-4dac-9b26-3afee5c2ea7a}, !- People Definition Name
  {6ecdf801-a0e9-4c41-a798-99e17a8955d2}; !- Space or SpaceType Name

OS:Schedule:Ruleset,
  {30bc2959-65fd-4bc7-bd45-39bf6413a1f2}, ! Handle
  SecondarySchool Auditorium Occ,         ! Name
  {4985a4b5-42f6-4763-8b1d-92c5c40dd83c}, ! Schedule Type Limits Name
  {0701d317-b263-447b-8ec8-42b3abd618a1}, ! Default Day Schedule Name
  {5c9ee170-dd6a-4b6f-b6df-eaf64ee06a2d}, ! Summer Design Day Schedule Name
  {38457a49-da6d-465e-87a6-de222e150fca}; ! Winter Design Day Schedule Name

OS:Schedule:Day,
  {0701d317-b263-447b-8ec8-42b3abd618a1}, ! Handle
  SecondarySchool Auditorium Occ Default Schedule, ! Name
  {4985a4b5-42f6-4763-8b1d-92c5c40dd83c}, ! Schedule Type Limits Name
  ,                                       ! Interpolate to Timestep
  8,                                      !- Hour 1
  0,                                      !- Minute 1
  0,                                      !- Value Until Time 1
  15,                                     !- Hour 2
  0,                                      !- Minute 2
  0.25,                                   !- Value Until Time 2
  17,                                     !- Hour 3
  0,                                      !- Minute 3
  0.95,                                   !- Value Until Time 3
  20,                                     !- Hour 4
  0,                                      !- Minute 4
  0.1,                                    !- Value Until Time 4
  24,                                     !- Hour 5
  0,                                      !- Minute 5
  0;                                      !- Value Until Time 5

OS:Schedule:Day,
  {5c9ee170-dd6a-4b6f-b6df-eaf64ee06a2d}, ! Handle
  SecondarySchool Auditorium Occ Summer Design Day, ! Name
  {4985a4b5-42f6-4763-8b1d-92c5c40dd83c}, ! Schedule Type Limits Name
  ,                                       ! Interpolate to Timestep
  8,                                      ! Hour 1
  0,                                      ! Minute 1
  0,                                      ! Value Until Time 1
  15,                                     ! Hour 2
  0,                                      ! Minute 2
  0.25,                                   ! Value Until Time 2
  17,                                     ! Hour 3
  0,                                      ! Minute 3
  0.94999999999999996,                    ! Value Until Time 3
  20,                                     ! Hour 4
  0,                                      ! Minute 4
  0.10000000000000001,                    ! Value Until Time 4
  24,                                     ! Hour 5
  0,                                      ! Minute 5
  0;                                      ! Value Until Time 5

OS:Schedule:Day,
  {38457a49-da6d-465e-87a6-de222e150fca}, ! Handle
  SecondarySchool Auditorium Occ Winter Design Day, ! Name
  {4985a4b5-42f6-4763-8b1d-92c5c40dd83c}, ! Schedule Type Limits Name
  ,                                       ! Interpolate to Timestep
  24,                                     ! Hour 1
  0,                                      ! Minute 1
  0;                                      ! Value Until Time 1

OS:Schedule:Rule,
  {371c673c-8fa7-4f5a-ae9f-14e7b3a31015}, ! Handle
  SecondarySchool Auditorium Occ Rule 1,  ! Name
  {30bc2959-65fd-4bc7-bd45-39bf6413a1f2}, ! Schedule Ruleset Name
  0,                                      ! Rule Order
  {d77a55f5-1b7b-4c1f-afb2-28fd489ddc48}, ! Day Schedule Name
  Yes,                                    ! Apply Sunday
  No,                                     ! Apply Monday
  No,                                     ! Apply Tuesday
  No,                                     ! Apply Wednesday
  No,                                     ! Apply Thursday
  No,                                     ! Apply Friday
  Yes,                                    ! Apply Saturday
  ,                                       ! Apply Holiday
  DateRange,                              ! Date Specification Type
  9,                                      ! Start Month
  1,                                      ! Start Day
  12,                                     ! End Month
  31;                                     ! End Day

OS:Schedule:Day,
  {d77a55f5-1b7b-4c1f-afb2-28fd489ddc48}, ! Handle
  SecondarySchool Auditorium Occ Rule 1 Day Schedule, ! Name
  {4985a4b5-42f6-4763-8b1d-92c5c40dd83c}, ! Schedule Type Limits Name
  ,                                       ! Interpolate to Timestep
  24,                                     ! Hour 1
  0,                                      ! Minute 1
  0;                                      ! Value Until Time 1

OS:Schedule:Rule,
  {a2f63db8-5440-4e4f-bfd7-701b12ec0826}, ! Handle
  SecondarySchool Auditorium Occ Rule 2,  ! Name
  {30bc2959-65fd-4bc7-bd45-39bf6413a1f2}, ! Schedule Ruleset Name
  1,                                      ! Rule Order
  {bbfe22b2-e8a2-4869-9817-722278cb4ea9}, ! Day Schedule Name
  No,                                     ! Apply Sunday
  Yes,                                    ! Apply Monday
  Yes,                                    ! Apply Tuesday
  Yes,                                    ! Apply Wednesday
  Yes,                                    ! Apply Thursday
  Yes,                                    ! Apply Friday
  No,                                     ! Apply Saturday
  ,                                       ! Apply Holiday
  DateRange,                              ! Date Specification Type
  9,                                      ! Start Month
  1,                                      ! Start Day
  12,                                     ! End Month
  31;                                     ! End Day

OS:Schedule:Day,
  {bbfe22b2-e8a2-4869-9817-722278cb4ea9}, ! Handle
  SecondarySchool Auditorium Occ Rule 2 Day Schedule, ! Name
  {4985a4b5-42f6-4763-8b1d-92c5c40dd83c}, ! Schedule Type Limits Name
  ,                                       ! Interpolate to Timestep
  8,                                      ! Hour 1
  0,                                      ! Minute 1
  0,                                      ! Value Until Time 1
  15,                                     ! Hour 2
  0,                                      ! Minute 2
  0.25,                                   ! Value Until Time 2
  17,                                     ! Hour 3
  0,                                      ! Minute 3
  0.94999999999999996,                    ! Value Until Time 3
  20,                                     ! Hour 4
  0,                                      ! Minute 4
  0.10000000000000001,                    ! Value Until Time 4
  24,                                     ! Hour 5
  0,                                      ! Minute 5
  0;                                      ! Value Until Time 5

OS:Schedule:Rule,
  {7c935585-955b-4c2d-9a4f-6acd006153b2}, ! Handle
  SecondarySchool Auditorium Occ Rule 3,  ! Name
  {30bc2959-65fd-4bc7-bd45-39bf6413a1f2}, ! Schedule Ruleset Name
  2,                                      ! Rule Order
  {0495cc51-bfc8-4e26-9120-d70de980c121}, ! Day Schedule Name
  Yes,                                    ! Apply Sunday
  No,                                     ! Apply Monday
  No,                                     ! Apply Tuesday
  No,                                     ! Apply Wednesday
  No,                                     ! Apply Thursday
  No,                                     ! Apply Friday
  Yes,                                    ! Apply Saturday
  ,                                       ! Apply Holiday
  DateRange,                              ! Date Specification Type
  7,                                      ! Start Month
  1,                                      ! Start Day
  9,                                      ! End Month
  1;                                      ! End Day

OS:Schedule:Day,
  {0495cc51-bfc8-4e26-9120-d70de980c121}, ! Handle
  SecondarySchool Auditorium Occ Rule 3 Day Schedule, ! Name
  {4985a4b5-42f6-4763-8b1d-92c5c40dd83c}, ! Schedule Type Limits Name
  ,                                       ! Interpolate to Timestep
  24,                                     ! Hour 1
  0,                                      ! Minute 1
  0;                                      ! Value Until Time 1

OS:Schedule:Rule,
  {31124e02-29f5-48d3-abbe-7ece75aa3ee9}, ! Handle
  SecondarySchool Auditorium Occ Rule 4,  ! Name
  {30bc2959-65fd-4bc7-bd45-39bf6413a1f2}, ! Schedule Ruleset Name
  3,                                      ! Rule Order
  {654a4012-6c09-48f9-8255-22de00effcc0}, ! Day Schedule Name
  No,                                     ! Apply Sunday
  Yes,                                    ! Apply Monday
  Yes,                                    ! Apply Tuesday
  Yes,                                    ! Apply Wednesday
  Yes,                                    ! Apply Thursday
  Yes,                                    ! Apply Friday
  No,                                     ! Apply Saturday
  ,                                       ! Apply Holiday
  DateRange,                              ! Date Specification Type
  7,                                      ! Start Month
  1,                                      ! Start Day
  9,                                      ! End Month
  1;                                      ! End Day

OS:Schedule:Day,
  {654a4012-6c09-48f9-8255-22de00effcc0}, ! Handle
  SecondarySchool Auditorium Occ Rule 4 Day Schedule, ! Name
  {4985a4b5-42f6-4763-8b1d-92c5c40dd83c}, ! Schedule Type Limits Name
  ,                                       ! Interpolate to Timestep
  8,                                      ! Hour 1
  0,                                      ! Minute 1
  0,                                      ! Value Until Time 1
  17,                                     ! Hour 2
  0,                                      ! Minute 2
  0.14999999999999999,                    ! Value Until Time 2
  19,                                     ! Hour 3
  0,                                      ! Minute 3
  0.34999999999999998,                    ! Value Until Time 3
  24,                                     ! Hour 4
  0,                                      ! Minute 4
  0;                                      ! Value Until Time 4

OS:Schedule:Rule,
  {4fa80eac-871e-462c-a038-741dd64dd811}, ! Handle
  SecondarySchool Auditorium Occ Rule 5,  ! Name
  {30bc2959-65fd-4bc7-bd45-39bf6413a1f2}, ! Schedule Ruleset Name
  4,                                      ! Rule Order
  {1ddf51a7-5c41-42b1-986c-631a669833d7}, ! Day Schedule Name
  Yes,                                    ! Apply Sunday
  No,                                     ! Apply Monday
  No,                                     ! Apply Tuesday
  No,                                     ! Apply Wednesday
  No,                                     ! Apply Thursday
  No,                                     ! Apply Friday
  Yes,                                    ! Apply Saturday
  ,                                       ! Apply Holiday
  DateRange,                              ! Date Specification Type
  1,                                      ! Start Month
  1,                                      ! Start Day
  6,                                      ! End Month
  30;                                     ! End Day

OS:Schedule:Day,
  {1ddf51a7-5c41-42b1-986c-631a669833d7}, ! Handle
  SecondarySchool Auditorium Occ Rule 5 Day Schedule, ! Name
  {4985a4b5-42f6-4763-8b1d-92c5c40dd83c}, ! Schedule Type Limits Name
  ,                                       ! Interpolate to Timestep
  24,                                     ! Hour 1
  0,                                      ! Minute 1
  0;                                      ! Value Until Time 1

OS:Schedule:Ruleset,
  {cf59c81d-6b40-4b85-b116-79c0c0633da9}, ! Handle
  SecondarySchool Activity,               ! Name
  {d5eec071-604e-420f-9cea-ccb3b206a7d5}, ! Schedule Type Limits Name
  {28cf3717-ca6d-4733-9a0d-d1cb0dec59f3}, ! Default Day Schedule Name
  {7bff38b1-6651-4f47-af42-be7f42abe9bc}, ! Summer Design Day Schedule Name
  {711ff05a-ee38-4991-9b58-3ef82ef31f90}; ! Winter Design Day Schedule Name

OS:ScheduleTypeLimits,
  {d5eec071-604e-420f-9cea-ccb3b206a7d5}, !- Handle
  ActivityLevel 2,                        !- Name
  0,                                      !- Lower Limit Value {BasedOnField A4}
  ,                                       !- Upper Limit Value {BasedOnField A4}
  Continuous,                             !- Numeric Type
  ActivityLevel;                          !- Unit Type

OS:Schedule:Day,
  {28cf3717-ca6d-4733-9a0d-d1cb0dec59f3}, ! Handle
  SecondarySchool Activity Default Schedule, ! Name
  {d5eec071-604e-420f-9cea-ccb3b206a7d5}, ! Schedule Type Limits Name
  ,                                       ! Interpolate to Timestep