
OS:Version,
  {c83e842d-9dd5-4ede-8583-3dd7844281cc}, !- Handle
  1.6.0;                                  !- Version Identifier

OS:ClimateZones,
  {00dda828-8d9d-4465-bd4d-0c0c556ea992}, !- Handle
  ,                                       !- Active Institution
  ,                                       !- Active Year
  ASHRAE,                                 !- Climate Zone Institution Name 1
  ANSI/ASHRAE Standard 169,               !- Climate Zone Document Name 1
  2006,                                   !- Climate Zone Document Year 1
  ,                                       !- Climate Zone Value 1
  CEC,                                    !- Climate Zone Institution Name 2
  California Climate Zone Descriptions,   !- Climate Zone Document Name 2
  1995,                                   !- Climate Zone Document Year 2
  ;                                       !- Climate Zone Value 2

OS:LifeCycleCost:Parameters,
  {6a4fbf89-81ad-4d65-b366-afd317fb7f33}, !- Handle
  FEMP,                                   !- Analysis Type
  ,                                       !- Discounting Convention
  ,                                       !- Inflation Approach
  ,                                       !- Real Discount Rate
  ,                                       !- Nominal Discount Rate
  ,                                       !- Inflation
  ,                                       !- Base Date Month
  ,                                       !- Base Date Year
  ,                                       !- Service Date Month
  ,                                       !- Service Date Year
  ,                                       !- Length of Study Period in Years
  ,                                       !- Tax Rate
  ,                                       !- Depreciation Method
  Yes;                                    !- Use NIST Fuel Escalation Rates

OS:YearDescription,
  {6db9d436-efda-4d1c-99cd-5e575aafcf98}; !- Handle

OS:Building,
  {aed50290-79f3-49ec-b232-91325ed1b660}, !- Handle
  Building 1,                             !- Name
  ,                                       !- Building Sector Type
  ,                                       !- North Axis {deg}
  ,                                       !- Nominal Floor to Floor Height {m}
  {0cfe56b3-87ad-43f9-a312-e67e0a7b370a}, !- Space Type Name
  {3555f718-f86b-4cc7-ba3b-f744dbf16d03}, !- Default Construction Set Name
  ;                                       !- Default Schedule Set Name

OS:Facility,
  {57faeb43-443e-4961-8221-fe11336fdc41}; !- Handle

OS:SpaceType,
  {0cfe56b3-87ad-43f9-a312-e67e0a7b370a}, !- Handle
  DOE Ref 1980-2004 - Warehouse - Bulk,   !- Name
  ,                                       !- Default Construction Set Name
  {5352e57a-d2cc-46af-8c7c-29a2cb19e20b}, !- Default Schedule Set Name
  {ab1f9876-bf15-4361-92fe-91af029a32c2}, !- Group Rendering Name
  {f27d62c3-6d0d-41ec-b1c8-ed20124622d4}, !- Design Specification Outdoor Air Object Name
  Warehouse,                              !- Standards Building Type
  Bulk;                                   !- Standards Space Type

OS:Rendering:Color,
  {ab1f9876-bf15-4361-92fe-91af029a32c2}, !- Handle
  Rendering Color 1,                      !- Name
  41,                                     !- Rendering Red Value
  31,                                     !- Rendering Green Value
  169;                                    !- Rendering Blue Value

OS:DefaultScheduleSet,
  {5352e57a-d2cc-46af-8c7c-29a2cb19e20b}, !- Handle
  DOE Ref 1980-2004 - Warehouse - Bulk Schedule Set, !- Name
  ,                                       !- Hours of Operation Schedule Name
  ,                                       !- Number of People Schedule Name
  ,                                       !- People Activity Level Schedule Name
  {facc08a4-f05f-4b25-a4ba-14e7c299c3a8}, !- Lighting Schedule Name
  {c57e7582-873f-4ac8-aea1-0d4802e2b734}, !- Electric Equipment Schedule Name
  ,                                       !- Gas Equipment Schedule Name
  ,                                       !- Hot Water Equipment Schedule Name
  {f35e7290-f1ec-41e2-8b4b-34f74da2f5e5}, !- Infiltration Schedule Name
  ,                                       !- Steam Equipment Schedule Name
  ;                                       !- Other Equipment Schedule Name

OS:Lights:Definition,
  {fe0bba21-3834-47d9-8533-aa39145d0a69}, !- Handle
  DOE Ref 1980-2004 - Warehouse - Bulk Lights Definition, !- Name
  Watts/Area,                             !- Design Level Calculation Method
  ,                                       !- Lighting Level {W}
  3.33681222918001,                       !- Watts per Space Floor Area {W/m2}
  ;                                       !- Watts per Person {W/person}

OS:Lights,
  {e3d59430-1415-499d-8aa5-bb6ab922fe6b}, !- Handle
  DOE Ref 1980-2004 - Warehouse - Bulk Lights, !- Name
  {fe0bba21-3834-47d9-8533-aa39145d0a69}, !- Lights Definition Name
  {0cfe56b3-87ad-43f9-a312-e67e0a7b370a}; !- Space or SpaceType Name

OS:Schedule:Ruleset,
  {facc08a4-f05f-4b25-a4ba-14e7c299c3a8}, ! Handle
  Warehouse Bldg Light,                   ! Name
  {f64fc9b1-4d0a-44ea-81dc-35d1eff289f7}, ! Schedule Type Limits Name
  {be71da89-a207-40b2-9bd7-ad43b7ab5c6f}, ! Default Day Schedule Name
  {1e6d1bcf-fad1-4130-ade5-a6c80a782671}, ! Summer Design Day Schedule Name
  {e910e663-9809-4efc-9fd6-911a249bd325}; ! Winter Design Day Schedule Name

OS:ScheduleTypeLimits,
  {f64fc9b1-4d0a-44ea-81dc-35d1eff289f7}, ! Handle
  Fraction,                               ! Name
  0,                                      ! Lower Limit Value
  1,                                      ! Upper Limit Value
  CONTINUOUS;                             ! Numeric Type

OS:Schedule:Day,
  {be71da89-a207-40b2-9bd7-ad43b7ab5c6f}, ! Handle
  Warehouse Bldg Light Default Schedule,  ! Name
  {f64fc9b1-4d0a-44ea-81dc-35d1eff289f7}, ! Schedule Type Limits Name
  ,                                       ! Interpolate to Timestep
  7,                                      !- Hour 1
  0,                                      !- Minute 1
  0.1,                                    !- Value Until Time 1
  8,                                      !- Hour 2
  0,                                      !- Minute 2
  0.4,                                    !- Value Until Time 2
  9,                                      !- Hour 3
  0,                                      !- Minute 3
  0.7,                                    !- Value Until Time 3
  12,                                     !- Hour 4
  0,                                      !- Minute 4
  0.9,                                    !- Value Until Time 4
  13,                                     !- Hour 5
  0,                                      !- Minute 5
  0.8,                                    !- Value Until Time 5
  17,                                     !- Hour 6
  0,                                      !- Minute 6
  0.9,                                    !- Value Until Time 6
  18,                                     !- Hour 7
  0,                                      !- Minute 7
  0.3,                                    !- Value Until Time 7
  24,                                     !- Hour 8
  0,                                      !- Minute 8
  0.1;                                    !- Value Until Time 8

OS:Schedule:Day,
  {1e6d1bcf-fad1-4130-ade5-a6c80a782671}, ! Handle
  Warehouse Bldg Light Summer Design Day, ! Name
  {f64fc9b1-4d0a-44ea-81dc-35d1eff289f7}, ! Schedule Type Limits Name
  ,                                       ! Interpolate to Timestep
  24,                                     ! Hour 1
  0,                                      ! Minute 1
  1;                                      ! Value Until Time 1

OS:Schedule:Day,
  {e910e663-9809-4efc-9fd6-911a249bd325}, ! Handle
  Warehouse Bldg Light Winter Design Day, ! Name
  {f64fc9b1-4d0a-44ea-81dc-35d1eff289f7}, ! Schedule Type Limits Name
  ,                                       ! Interpolate to Timestep
  24,                                     ! Hour 1
  0,                                      ! Minute 1
  0;                                      ! Value Until Time 1

OS:Schedule:Rule,
  {899c51bd-bf02-43ba-9c18-36c71382fff2}, ! Handle
  Warehouse Bldg Light Rule 1,            ! Name
  {facc08a4-f05f-4b25-a4ba-14e7c299c3a8}, ! Schedule Ruleset Name
  0,                                      ! Rule Order
  {9b308fad-8a59-4a69-b43d-33b7769a552b}, ! Day Schedule Name
  Yes,                                    ! Apply Sunday
  No,                                     ! Apply Monday
  No,                                     ! Apply Tuesday
  No,                                     ! Apply Wednesday
  No,                                     ! Apply Thursday
  No,                                     ! Apply Friday
  No,                                     ! Apply Saturday
  ,                                       ! Apply Holiday
  DateRange,                              ! Date Specification Type
  1,                                      ! Start Month
  1,                                      ! Start Day
  12,                                     ! End Month
  31;                                     ! End Day

OS:Schedule:Day,
  {9b308fad-8a59-4a69-b43d-33b7769a552b}, ! Handle
  Warehouse Bldg Light Rule 1 Day Schedule, ! Name
  {f64fc9b1-4d0a-44ea-81dc-35d1eff289f7}, ! Schedule Type Limits Name
  ,                                       ! Interpolate to Timestep
  24,                                     ! Hour 1
  0,                                      ! Minute 1
  0.10000000000000001;                    ! Value Until Time 1

OS:Schedule:Rule,
  {50492fcd-e41a-44e5-a5d3-6ba1195b35ed}, ! Handle
  Warehouse Bldg Light Rule 2,            ! Name
  {facc08a4-f05f-4b25-a4ba-14e7c299c3a8}, ! Schedule Ruleset Name
  1,                                      ! Rule Order
  {d707a8f9-e697-4cfa-a4ca-b70c267c9156}, ! Day Schedule Name
  No,                                     ! Apply Sunday
  No,                                     ! Apply Monday
  No,                                     ! Apply Tuesday
  No,                                     ! Apply Wednesday
  No,                                     ! Apply Thursday
  No,                                     ! Apply Friday
  Yes,                                    ! Apply Saturday
  ,                                       ! Apply Holiday
  DateRange,                              ! Date Specification Type
  1,                                      ! Start Month
  1,                                      ! Start Day
  12,                                     ! End Month
  31;                                     ! End Day

OS:Schedule:Day,
  {d707a8f9-e697-4cfa-a4ca-b70c267c9156}, ! Handle
  Warehouse Bldg Light Rule 2 Day Schedule, ! Name
  {f64fc9b1-4d0a-44ea-81dc-35d1eff289f7}, ! Schedule Type Limits Name
  ,                                       ! Interpolate to Timestep
  8,                                      ! Hour 1
  0,                                      ! Minute 1
  0.10000000000000001,                    ! Value Until Time 1
  9,                                      ! Hour 2
  0,                                      ! Minute 2
  0.10000000000000001,                    ! Value Until Time 2
  12,                                     ! Hour 3
  0,                                      ! Minute 3
  0.23999999999999999,                    ! Value Until Time 3
  24,                                     ! Hour 4
  0,                                      ! Minute 4
  0.10000000000000001;                    ! Value Until Time 4

OS:DesignSpecification:OutdoorAir,
  {f27d62c3-6d0d-41ec-b1c8-ed20124622d4}, !- Handle
  DOE Ref 1980-2004 - Warehouse - Bulk Ventilation, !- Name
  Sum,                                    !- Outdoor Air Method
  ,                                       !- Outdoor Air Flow per Person {m3/s-person}
  0.000254,                               !- Outdoor Air Flow per Floor Area {m3/s-m2}
  ,                                       !- Outdoor Air Flow Rate {m3/s}
  ,                                       !- Outdoor Air Flow Air Changes per Hour {1/hr}
  ;                                       !- Outdoor Air Flow Rate Fraction Schedule Name

OS:SpaceInfiltration:DesignFlowRate,
  {8b4a84f4-afbd-4f4d-9e68-47e13085dcf8}, !- Handle
  DOE Ref 1980-2004 - Warehouse - Bulk Infiltration, !- Name
  {0cfe56b3-87ad-43f9-a312-e67e0a7b370a}, !- Space or SpaceType Name
  ,                                       !- Schedule Name
  Flow/ExteriorArea,                      !- Design Flow Rate Calculation Method
  ,                                       !- Design Flow Rate {m3/s}
  ,                                       !- Flow per Space Floor Area {m3/s-m2}
  0.001133856,                            !- Flow per Exterior Surface Area {m3/s-m2}
  ,                                       !- Air Changes per Hour {1/hr}
  ,                                       !- Constant Term Coefficient
  ,                                       !- Temperature Term Coefficient
  ,                                       !- Velocity Term Coefficient
  ;                                       !- Velocity Squared Term Coefficient

OS:Schedule:Ruleset,
  {f35e7290-f1ec-41e2-8b4b-34f74da2f5e5}, ! Handle
  Always On,                              ! Name
  {bfc8700e-5144-4444-8436-db483a06f33f}, ! Schedule Type Limits Name
  {dbc1bdaa-5338-41ae-8fa9-52fa35b34684}, ! Default Day Schedule Name
  {b2b62a9d-0534-43c4-a825-87648e95877d}, ! Summer Design Day Schedule Name
  {51aab7cb-c166-4294-afd8-63c0264393cb}; ! Winter Design Day Schedule Name

OS:ScheduleTypeLimits,
  {bfc8700e-5144-4444-8436-db483a06f33f}, ! Handle
  On/Off,                                 ! Name
  0,                                      ! Lower Limit Value
  1,                                      ! Upper Limit Value
  DISCRETE;                               ! Numeric Type

OS:Schedule:Day,
  {dbc1bdaa-5338-41ae-8fa9-52fa35b34684}, ! Handle
  Always On Default Schedule,             ! Name
  {bfc8700e-5144-4444-8436-db483a06f33f}, ! Schedule Type Limits Name
  ,                                       ! Interpolate to Timestep
  24,                                     !- Hour 1
  0,                                      !- Minute 1
  1;                                      !- Value Until Time 1

OS:Schedule:Day,
  {b2b62a9d-0534-43c4-a825-87648e95877d}, ! Handle
  Always On Summer Design Day,            ! Name
  {bfc8700e-5144-4444-8436-db483a06f33f}, ! Schedule Type Limits Name
  ,                                       ! Interpolate to Timestep
  24,                                     ! Hour 1
  0,                                      ! Minute 1
  1;                                      ! Value Until Time 1

OS:Schedule:Day,
  {51aab7cb-c166-4294-afd8-63c0264393cb}, ! Handle
  Always On Winter Design Day,            ! Name
  {bfc8700e-5144-4444-8436-db483a06f33f}, ! Schedule Type Limits Name
  ,                                       ! Interpolate to Timestep
  24,                                     ! Hour 1
  0,                                      ! Minute 1
  1;                                      ! Value Until Time 1

OS:ElectricEquipment:Definition,
  {5c307268-aca1-4204-b709-7d3c691c1c7b}, !- Handle
  DOE Ref 1980-2004 - Warehouse - Bulk Electric Equipment Definition, !- Name
  Watts/Area,                             !- Design Level Calculation Method
  ,                                       !- Design Level {W}
  2.69097760417743,                       !- Watts per Space Floor Area {W/m2}
  ;                                       !- Watts per Person {W/person}

OS:ElectricEquipment,
  {d42614f5-e5db-4a96-a023-2be440dcc85b}, !- Handle
  DOE Ref 1980-2004 - Warehouse - Bulk Electric Equipment, !- Name
  {5c307268-aca1-4204-b709-7d3c691c1c7b}, !- Electric Equipment Definition Name
  {0cfe56b3-87ad-43f9-a312-e67e0a7b370a}; !- Space or SpaceType Name

OS:Schedule:Ruleset,
  {c57e7582-873f-4ac8-aea1-0d4802e2b734}, ! Handle
  Warehouse Bldg Equip,                   ! Name
  {f64fc9b1-4d0a-44ea-81dc-35d1eff289f7}, ! Schedule Type Limits Name
  {09e42e7f-0be4-412e-a2bc-bf9c38a8df3c}, ! Default Day Schedule Name
  {070090e8-c95b-4958-b158-7e0a1747dda8}, ! Summer Design Day Schedule Name
  {b3da2c91-183d-4065-8817-1b06d27839f8}; ! Winter Design Day Schedule Name

OS:Schedule:Day,
  {09e42e7f-0be4-412e-a2bc-bf9c38a8df3c}, ! Handle
  Warehouse Bldg Equip Default Schedule,  ! Name
  {f64fc9b1-4d0a-44ea-81dc-35d1eff289f7}, ! Schedule Type Limits Name
  ,                                       ! Interpolate to Timestep
  7,                                      !- Hour 1
  0,                                      !- Minute 1
  0.1,                                    !- Value Until Time 1
  8,                                      !- Hour 2
  0,                                      !- Minute 2
  0.5,                                    !- Value Until Time 2
  9,                                      !- Hour 3
  0,                                      !- Minute 3
  0.8,                                    !- Value Until Time 3
  12,                                     !- Hour 4
  0,                                      !- Minute 4
  0.9,                                    !- Value Until Time 4
  13,                                     !- Hour 5
  0,                                      !- Minute 5
  0.8,                                    !- Value Until Time 5
  17,                                     !- Hour 6
  0,                                      !- Minute 6
  0.9,                                    !- Value Until Time 6
  18,                                     !- Hour 7
  0,                                      !- Minute 7
  0.4,                                    !- Value Until Time 7
  24,                                     !- Hour 8
  0,                                      !- Minute 8
  0.1;                                    !- Value Until Time 8

OS:Schedule:Day,
  {070090e8-c95b-4958-b158-7e0a1747dda8}, ! Handle
  Warehouse Bldg Equip Summer Design Day, ! Name
  {f64fc9b1-4d0a-44ea-81dc-35d1eff289f7}, ! Schedule Type Limits Name
  ,                                       ! Interpolate to Timestep
  24,                                     ! Hour 1
  0,                                      ! Minute 1
  1;                                      ! Value Until Time 1

OS:Schedule:Day,
  {b3da2c91-183d-4065-8817-1b06d27839f8}, ! Handle
  Warehouse Bldg Equip Winter Design Day, ! Name
  {f64fc9b1-4d0a-44ea-81dc-35d1eff289f7}, ! Schedule Type Limits Name
  ,                                       ! Interpolate to Timestep
  24,                                     ! Hour 1
  0,                                      ! Minute 1
  0;                                      ! Value Until Time 1

OS:Schedule:Rule,
  {4524db8a-f73e-4fcc-ad1d-7b1c5831ebac}, ! Handle
  Warehouse Bldg Equip Rule 1,            ! Name
  {c57e7582-873f-4ac8-aea1-0d4802e2b734}, ! Schedule Ruleset Name
  0,                                      ! Rule Order
  {5acd93e3-1d0c-45f2-bdb6-db7ffff72294}, ! Day Schedule Name
  Yes,                                    ! Apply Sunday
  No,                                     ! Apply Monday
  No,                                     ! Apply Tuesday
  No,                                     ! Apply Wednesday
  No,                                     ! Apply Thursday
  No,                                     ! Apply Friday
  No,                                     ! Apply Saturday
  ,                                       ! Apply Holiday
  DateRange,                              ! Date Specification Type
  1,                                      ! Start Month
  1,                                      ! Start Day
  12,                                     ! End Month
  31;                                     ! End Day

OS:Schedule:Day,
  {5acd93e3-1d0c-45f2-bdb6-db7ffff72294}, ! Handle
  Warehouse Bldg Equip Rule 1 Day Schedule, ! Name
  {f64fc9b1-4d0a-44ea-81dc-35d1eff289f7}, ! Schedule Type Limits Name
  ,                                       ! Interpolate to Timestep
  24,                                     ! Hour 1
  0,                                      ! Minute 1
  0.10000000000000001;                    ! Value Until Time 1

OS:Schedule:Rule,
  {71003702-51da-4069-9540-4ab0d2455763}, ! Handle
  Warehouse Bldg Equip Rule 2,            ! Name
  {c57e7582-873f-4ac8-aea1-0d4802e2b734}, ! Schedule Ruleset Name
  1,                                      ! Rule Order
  {05a478f0-c8f0-409f-8d73-e545446c7585}, ! Day Schedule Name
  No,                                     ! Apply Sunday
  No,                                     ! Apply Monday
  No,                                     ! Apply Tuesday
  No,                                     ! Apply Wednesday
  No,                                     ! Apply Thursday
  No,                                     ! Apply Friday
  Yes,                                    ! Apply Saturday
  ,                                       ! Apply Holiday
  DateRange,                              ! Date Specification Type
  1,                                      ! Start Month
  1,                                      ! Start Day
  12,                                     ! End Month
  31;                                     ! End Day

OS:Schedule:Day,
  {05a478f0-c8f0-409f-8d73-e545446c7585}, ! Handle
  Warehouse Bldg Equip Rule 2 Day Schedule, ! Name
  {f64fc9b1-4d0a-44ea-81dc-35d1eff289f7}, ! Schedule Type Limits Name
  ,                                       ! Interpolate to Timestep
  8,                                      ! Hour 1
  0,                                      ! Minute 1
  0.10000000000000001,                    ! Value Until Time 1
  9,                                      ! Hour 2
  0,                                      ! Minute 2
  0.20000000000000001,                    ! Value Until Time 2
  12,                                     ! Hour 3
  0,                                      ! Minute 3
  0.40000000000000002,                    ! Value Until Time 3
  24,                                     ! Hour 4
  0,                                      ! Minute 4
  0.10000000000000001;                    ! Value Until Time 4

OS:Schedule:Ruleset,
  {a9843648-2669-4f55-bc65-d141391681c4}, ! Handle
  Warehouse HtgSetp BulkStorage,          ! Name
  {9f763ae6-2eb1-4f15-85eb-b4cf346dfd25}, ! Schedule Type Limits Name
  {6e9b7c4e-9064-4f9f-bceb-24c2f75f3eb3}, ! Default Day Schedule Name
  {2fc4fd00-1ba6-4607-b5b9-e66f213d58a7}, ! Summer Design Day Schedule Name
  {e2e25c0b-72de-4faa-8672-2678ebebdfea}; ! Winter Design Day Schedule Name

OS:ScheduleTypeLimits,
  {9f763ae6-2eb1-4f15-85eb-b4cf346dfd25}, !- Handle
  Temperature 24,                         !- Name
  ,                                       !- Lower Limit Value {BasedOnField A4}
  ,                                       !- Upper Limit Value {BasedOnField A4}
  Continuous,                             !- Numeric Type
  Temperature;                            !- Unit Type

OS:Schedule:Day,
  {6e9b7c4e-9064-4f9f-bceb-24c2f75f3eb3}, ! Handle
  Warehouse HtgSetp BulkStorage Default Schedule, ! Name
  {9f763ae6-2eb1-4f15-85eb-b4cf346dfd25}, ! Schedule Type Limits Name
  ,                                       ! Interpolate to Timestep
  24,                                     !- Hour 1
  0,                                      !- Minute 1
  7.2;                                    !- Value Until Time 1

OS:Schedule:Day,
  {2fc4fd00-1ba6-4607-b5b9-e66f213d58a7}, ! Handle
  Warehouse HtgSetp BulkStorage Summer Design Day, ! Name
  {9f763ae6-2eb1-4f15-85eb-b4cf346dfd25}, ! Schedule Type Limits Name
  ,                                       ! Interpolate to Timestep
  24,                                     ! Hour 1
  0,                                      ! Minute 1
  7.2000000000000002;                     ! Value Until Time 1

OS:Schedule:Day,
  {e2e25c0b-72de-4faa-8672-2678ebebdfea}, ! Handle
  Warehouse HtgSetp BulkStorage Winter Design Day, ! Name
  {9f763ae6-2eb1-4f15-85eb-b4cf346dfd25}, ! Schedule Type Limits Name
  ,                                       ! Interpolate to Timestep
  24,                                     ! Hour 1
  0,                                      ! Minute 1
  7.2000000000000002;                     ! Value Until Time 1

OS:Schedule:Ruleset,
  {c4793fc3-9de0-4c44-b635-050338724d09}, ! Handle
  Warehouse ClgSetp,                      ! Name
  {d23fbaae-4a3f-4731-b1c4-75d459b5d7fa}, ! Schedule Type Limits Name
  {4b0e685f-11ac-4cf0-abd3-a5227c7c92a3}, ! Default Day Schedule Name
  {d6ddff46-c8b9-4a8b-8ee1-be9fc1fe0a08}, ! Summer Design Day Schedule Name
  {c133efd7-03d0-4ec1-b25d-731d1be77eb3}; ! Winter Design Day Schedule Name

OS:ScheduleTypeLimits,
  {d23fbaae-4a3f-4731-b1c4-75d459b5d7fa}, !- Handle
  Temperature 46,                         !- Name
  ,                                       !- Lower Limit Value {BasedOnField A4}
  ,                                       !- Upper Limit Value {BasedOnField A4}
  Continuous,                             !- Numeric Type
  Temperature;                            !- Unit Type

OS:Schedule:Day,
  {4b0e685f-11ac-4cf0-abd3-a5227c7c92a3}, ! Handle
  Warehouse ClgSetp Default Schedule,     ! Name
  {d23fbaae-4a3f-4731-b1c4-75d459b5d7fa}, ! Schedule Type Limits Name
  ,                                       ! Interpolate to Timestep
  7,                                      !- Hour 1
  0,                                      !- Minute 1
  30,                                     !- Value Until Time 1
  17,                                     !- Hour 2
  0,                                      !- Minute 2
  24,                                     !- Value Until Time 2
  24,                                     !- Hour 3
  0,                                      !- Minute 3
  30;                                     !- Value Until Time 3

OS:Schedule:Day,
  {d6ddff46-c8b9-4a8b-8ee1-be9fc1fe0a08}, ! Handle
  Warehouse ClgSetp Summer Design Day,    ! Name
  {d23fbaae-4a3f-4731-b1c4-75d459b5d7fa}, ! Schedule Type Limits Name
  ,                                       ! Interpolate to Timestep
  7,                                      ! Hour 1
  0,                                      ! Minute 1
  30,                                     ! Value Until Time 1
  17,                                     ! Hour 2
  0,                                      ! Minute 2
  24,                                     ! Value Until Time 2
  24,                                     ! Hour 3
  0,                                      ! Minute 3
  30;                                     ! Value Until Time 3

OS:Schedule:Day,
  {c133efd7-03d0-4ec1-b25d-731d1be77eb3}, ! Handle
  Warehouse ClgSetp Winter Design Day,    ! Name
  {d23fbaae-4a3f-4731-b1c4-75d459b5d7fa}, ! Schedule Type Limits Name
  ,                                       ! Interpolate to Timestep
  24,                                     ! Hour 1
  0,                                      ! Minute 1
  30;                                     ! Value Until Time 1

OS:Schedule:Rule,
  {d6bb387c-d6ab-4220-9017-be95364c5927}, ! Handle
  Warehouse ClgSetp Rule 1,               ! Name
  {c4793fc3-9de0-4c44-b635-050338724d09}, ! Schedule Ruleset Name
  0,                                      ! Rule Order
  {8d320407-9f47-4d7a-9bcb-4491ab8877f8}, ! Day Schedule Name
  Yes,                                    ! Apply Sunday
  No,                                     ! Apply Monday
  No,                                     ! Apply Tuesday
  No,                                     ! Apply Wednesday
  No,                                     ! Apply Thursday
  No,                                     ! Apply Friday
  No,                                     ! Apply Saturday
  ,                                       ! Apply Holiday
  DateRange,                              ! Date Specification Type
  1,                                      ! Start Month
  1,                                      ! Start Day
  12,                                     ! End Month
  31;                                     ! End Day

OS:Schedule:Day,
  {8d320407-9f47-4d7a-9bcb-4491ab8877f8}, ! Handle
  Warehouse ClgSetp Rule 1 Day Schedule,  ! Name
  {d23fbaae-4a3f-4731-b1c4-75d459b5d7fa}, ! Schedule Type Limits Name
  ,                                       ! Interpolate to Timestep
  24,                                     ! Hour 1
  0,                                      ! Minute 1
  30;                                     ! Value Until Time 1

OS:Schedule:Rule,
  {c1883a73-46b8-48b0-8ec9-e0939fffdd9a}, ! Handle
  Warehouse ClgSetp Rule 2,               ! Name
  {c4793fc3-9de0-4c44-b635-050338724d09}, ! Schedule Ruleset Name
  1,                                      ! Rule Order
  {a118f8ad-d752-4a53-8985-10f9438e525a}, ! Day Schedule Name
  No,                                     ! Apply Sunday
  No,                                     ! Apply Monday
  No,                                     ! Apply Tuesday
  No,                                     ! Apply Wednesday
  No,                                     ! Apply Thursday
  No,                                     ! Apply Friday
  Yes,                                    ! Apply Saturday
  ,                                       ! Apply Holiday
  DateRange,                              ! Date Specification Type
  1,                                      ! Start Month
  1,                                      ! Start Day
  12,                                     ! End Month
  31;                                     ! End Day

OS:Schedule:Day,
  {a118f8ad-d752-4a53-8985-10f9438e525a}, ! Handle
  Warehouse ClgSetp Rule 2 Day Schedule,  ! Name
  {d23fbaae-4a3f-4731-b1c4-75d459b5d7fa}, ! Schedule Type Limits Name
  ,                                       ! Interpolate to Timestep