
OS:Version,
  {c83e842d-9dd5-4ede-8583-3dd7844281cc}, !- Handle
  1.6.0;                                  !- Version Identifier

OS:ClimateZones,
  {00dda828-8d9d-4465-bd4d-0c0c556ea992}, !- Handle
  ,                                       !- Active Institution
  ,                                       !- Active Year
  ASHRAE,                                 !- Climate Zone Institution Name 1
  ANSI/ASHRAE Standard 169,               !- Climate Zone Document Name 1
  2006,                                   !- Climate Zone Document Year 1
  ,                                       !- Climate Zone Value 1
  CEC,                                    !- Climate Zone Institution Name 2
  California Climate Zone Descriptions,   !- Climate Zone Document Name 2
  1995,                                   !- Climate Zone Document Year 2
  ;                                       !- Climate Zone Value 2

OS:LifeCycleCost:Parameters,
  {6a4fbf89-81ad-4d65-b366-afd317fb7f33}, !- Handle
  FEMP,                                   !- Analysis Type
  ,                                       !- Discounting Convention
  ,                                       !- Inflation Approach
  ,                                       !- Real Discount Rate
  ,                                       !- Nominal Discount Rate
  ,                                       !- Inflation
  ,                                       !- Base Date Month
  ,                                       !- Base Date Year
  ,                                       !- Service Date Month
  ,                                       !- Service Date Year
  ,                                       !- Length of Study Period in Years
  ,                                       !- Tax Rate
  ,                                       !- Depreciation Method
  Yes;                                    !- Use NIST Fuel Escalation Rates

OS:YearDescription,
  {6db9d436-efda-4d1c-99cd-5e575aafcf98}; !- Handle

OS:Building,
  {aed50290-79f3-49ec-b232-91325ed1b660}, !- Handle
  Building 1,                             !- Name
  ,                                       !- Building Sector Type
  ,                                       !- North Axis {deg}
  ,                                       !- Nominal Floor to Floor Height {m}
  {f87fcaf0-a975-4b82-a7be-5b929e4b470d}, !- Space Type Name
  {c6029694-72ee-4f4a-9512-81e655a3873f}, !- Default Construction Set Name
  ;                                       !- Default Schedule Set Name

OS:Facility,
  {57faeb43-443e-4961-8221-fe11336fdc41}; !- Handle

OS:SpaceType,
  {f87fcaf0-a975-4b82-a7be-5b929e4b470d}, !- Handle
  DOE Ref 1980-2004 - Warehouse - Bulk,   !- Name
  ,                                       !- Default Construction Set Name
  {64b6fe38-7694-41e5-ae81-a09d6ccfdfa5}, !- Default Schedule Set Name
  {5a9a1f9f-a103-49a1-b828-3f8115418af6}, !- Group Rendering Name
  {77524a8f-43f8-432d-ace3-4d57247d5897}, !- Design Specification Outdoor Air Object Name
  Warehouse,                              !- Standards Building Type
  Bulk;                                   !- Standards Space Type

OS:Rendering:Color,
  {5a9a1f9f-a103-49a1-b828-3f8115418af6}, !- Handle
  Rendering Color 1,                      !- Name
  41,                                     !- Rendering Red Value
  31,                                     !- Rendering Green Value
  169;                                    !- Rendering Blue Value

OS:DefaultScheduleSet,
  {64b6fe38-7694-41e5-ae81-a09d6ccfdfa5}, !- Handle
  DOE Ref 1980-2004 - Warehouse - Bulk Schedule Set, !- Name
  ,                                       !- Hours of Operation Schedule Name
  ,                                       !- Number of People Schedule Name
  ,                                       !- People Activity Level Schedule Name
  {2e331ede-747a-4c08-8f81-79c5ed627bcc}, !- Lighting Schedule Name
  {67964762-f23a-4367-a0ca-a6595cdf0e38}, !- Electric Equipment Schedule Name
  ,                                       !- Gas Equipment Schedule Name
  ,                                       !- Hot Water Equipment Schedule Name
  {00a43c45-a067-456b-8d14-c0d11d600b77}, !- Infiltration Schedule Name
  ,                                       !- Steam Equipment Schedule Name
  ;                                       !- Other Equipment Schedule Name

OS:Lights:Definition,
  {3f3e758a-3e35-4514-8791-627e3c5f20f0}, !- Handle
  DOE Ref 1980-2004 - Warehouse - Bulk Lights Definition, !- Name
  Watts/Area,                             !- Design Level Calculation Method
  ,                                       !- Lighting Level {W}
  3.33681222918001,                       !- Watts per Space Floor Area {W/m2}
  ;                                       !- Watts per Person {W/person}

OS:Lights,
  {89fea802-0d4b-46f8-be7d-e68a50bed3b3}, !- Handle
  DOE Ref 1980-2004 - Warehouse - Bulk Lights, !- Name
  {3f3e758a-3e35-4514-8791-627e3c5f20f0}, !- Lights Definition Name
  {f87fcaf0-a975-4b82-a7be-5b929e4b470d}; !- Space or SpaceType Name

OS:Schedule:Ruleset,
  {2e331ede-747a-4c08-8f81-79c5ed627bcc}, ! Handle
  Warehouse Bldg Light,                   ! Name
  {76739ba7-72b8-4f37-aaf0-797ccde5fcda}, ! Schedule Type Limits Name
  {8a77df05-2026-49e0-b278-d677f3c0ceac}, ! Default Day Schedule Name
  {053941b1-6cf4-429d-b16a-cdecaed29cee}, ! Summer Design Day Schedule Name
  {9409c987-9082-421c-9904-8b8271c509b3}; ! Winter Design Day Schedule Name

OS:ScheduleTypeLimits,
  {76739ba7-72b8-4f37-aaf0-797ccde5fcda}, ! Handle
  Fraction,                               ! Name
  0,                                      ! Lower Limit Value
  1,                                      ! Upper Limit Value
  CONTINUOUS;                             ! Numeric Type

OS:Schedule:Day,
  {8a77df05-2026-49e0-b278-d677f3c0ceac}, ! Handle
  Warehouse Bldg Light Default Schedule,  ! Name
  {76739ba7-72b8-4f37-aaf0-797ccde5fcda}, ! Schedule Type Limits Name
  ,                                       ! Interpolate to Timestep
  7,                                      !- Hour 1
  0,                                      !- Minute 1
  0.1,                                    !- Value Until Time 1
  8,                                      !- Hour 2
  0,                                      !- Minute 2
  0.4,                                    !- Value Until Time 2
  9,                                      !- Hour 3
  0,                                      !- Minute 3
  0.7,                                    !- Value Until Time 3
  12,                                     !- Hour 4
  0,                                      !- Minute 4
  0.9,                                    !- Value Until Time 4
  13,                                     !- Hour 5
  0,                                      !- Minute 5
  0.8,                                    !- Value Until Time 5
  17,                                     !- Hour 6
  0,                                      !- Minute 6
  0.9,                                    !- Value Until Time 6
  18,                                     !- Hour 7
  0,                                      !- Minute 7
  0.3,                                    !- Value Until Time 7
  24,                                     !- Hour 8
  0,                                      !- Minute 8
  0.1;                                    !- Value Until Time 8

OS:Schedule:Day,
  {053941b1-6cf4-429d-b16a-cdecaed29cee}, ! Handle
  Warehouse Bldg Light Summer Design Day, ! Name
  {76739ba7-72b8-4f37-aaf0-797ccde5fcda}, ! Schedule Type Limits Name
  ,                                       ! Interpolate to Timestep
  24,                                     ! Hour 1
  0,                                      ! Minute 1
  1;                                      ! Value Until Time 1

OS:Schedule:Day,
  {9409c987-9082-421c-9904-8b8271c509b3}, ! Handle
  Warehouse Bldg Light Winter Design Day, ! Name
  {76739ba7-72b8-4f37-aaf0-797ccde5fcda}, ! Schedule Type Limits Name
  ,                                       ! Interpolate to Timestep
  24,                                     ! Hour 1
  0,                                      ! Minute 1
  0;                                      ! Value Until Time 1

OS:Schedule:Rule,
  {4214ffd6-75fa-4739-aeb8-76ea02b132e7}, ! Handle
  Warehouse Bldg Light Rule 1,            ! Name
  {2e331ede-747a-4c08-8f81-79c5ed627bcc}, ! Schedule Ruleset Name
  0,                                      ! Rule Order
  {4f7bb5c6-4724-4582-a7e9-c968f15a3a25}, ! Day Schedule Name
  Yes,                                    ! Apply Sunday
  No,                                     ! Apply Monday
  No,                                     ! Apply Tuesday
  No,                                     ! Apply Wednesday
  No,                                     ! Apply Thursday
  No,                                     ! Apply Friday
  No,                                     ! Apply Saturday
  ,                                       ! Apply Holiday
  DateRange,                              ! Date Specification Type
  1,                                      ! Start Month
  1,                                      ! Start Day
  12,                                     ! End Month
  31;                                     ! End Day

OS:Schedule:Day,
  {4f7bb5c6-4724-4582-a7e9-c968f15a3a25}, ! Handle
  Warehouse Bldg Light Rule 1 Day Schedule, ! Name
  {76739ba7-72b8-4f37-aaf0-797ccde5fcda}, ! Schedule Type Limits Name
  ,                                       ! Interpolate to Timestep
  24,                                     ! Hour 1
  0,                                      ! Minute 1
  0.10000000000000001;                    ! Value Until Time 1

OS:Schedule:Rule,
  {ebd16eac-2ee3-43f3-bd65-a35c34f415a0}, ! Handle
  Warehouse Bldg Light Rule 2,            ! Name
  {2e331ede-747a-4c08-8f81-79c5ed627bcc}, ! Schedule Ruleset Name
  1,                                      ! Rule Order
  {b5f041a2-e600-4983-a9c2-1839778ed877}, ! Day Schedule Name
  No,                                     ! Apply Sunday
  No,                                     ! Apply Monday
  No,                                     ! Apply Tuesday
  No,                                     ! Apply Wednesday
  No,                                     ! Apply Thursday
  No,                                     ! Apply Friday
  Yes,                                    ! Apply Saturday
  ,                                       ! Apply Holiday
  DateRange,                              ! Date Specification Type
  1,                                      ! Start Month
  1,                                      ! Start Day
  12,                                     ! End Month
  31;                                     ! End Day

OS:Schedule:Day,
  {b5f041a2-e600-4983-a9c2-1839778ed877}, ! Handle
  Warehouse Bldg Light Rule 2 Day Schedule, ! Name
  {76739ba7-72b8-4f37-aaf0-797ccde5fcda}, ! Schedule Type Limits Name
  ,                                       ! Interpolate to Timestep
  8,                                      ! Hour 1
  0,                                      ! Minute 1
  0.10000000000000001,                    ! Value Until Time 1
  9,                                      ! Hour 2
  0,                                      ! Minute 2
  0.10000000000000001,                    ! Value Until Time 2
  12,                                     ! Hour 3
  0,                                      ! Minute 3
  0.23999999999999999,                    ! Value Until Time 3
  24,                                     ! Hour 4
  0,                                      ! Minute 4
  0.10000000000000001;                    ! Value Until Time 4

OS:DesignSpecification:OutdoorAir,
  {77524a8f-43f8-432d-ace3-4d57247d5897}, !- Handle
  DOE Ref 1980-2004 - Warehouse - Bulk Ventilation, !- Name
  Sum,                                    !- Outdoor Air Method
  ,                                       !- Outdoor Air Flow per Person {m3/s-person}
  0.000254,                               !- Outdoor Air Flow per Floor Area {m3/s-m2}
  ,                                       !- Outdoor Air Flow Rate {m3/s}
  ,                                       !- Outdoor Air Flow Air Changes per Hour {1/hr}
  ;                                       !- Outdoor Air Flow Rate Fraction Schedule Name

OS:SpaceInfiltration:DesignFlowRate,
  {b25c8ee4-f881-4de3-a9cc-579975836da0}, !- Handle
  DOE Ref 1980-2004 - Warehouse - Bulk Infiltration, !- Name
  {f87fcaf0-a975-4b82-a7be-5b929e4b470d}, !- Space or SpaceType Name
  ,                                       !- Schedule Name
  Flow/ExteriorArea,                      !- Design Flow Rate Calculation Method
  ,                                       !- Design Flow Rate {m3/s}
  ,                                       !- Flow per Space Floor Area {m3/s-m2}
  0.001133856,                            !- Flow per Exterior Surface Area {m3/s-m2}
  ,                                       !- Air Changes per Hour {1/hr}
  ,                                       !- Constant Term Coefficient
  ,                                       !- Temperature Term Coefficient
  ,                                       !- Velocity Term Coefficient
  ;                                       !- Velocity Squared Term Coefficient

OS:Schedule:Ruleset,
  {00a43c45-a067-456b-8d14-c0d11d600b77}, ! Handle
  Always On,                              ! Name
  {0b3cf742-7d4e-4e3d-8190-1e990d40fdc3}, ! Schedule Type Limits Name
  {3f5554f1-5866-41ae-a0a7-58351176ee8a}, ! Default Day Schedule Name
  {c095a4c7-4145-4420-9166-2a8be51ced5a}, ! Summer Design Day Schedule Name
  {227775bc-217d-4eb4-9472-6b1c4ae36ece}; ! Winter Design Day Schedule Name

OS:ScheduleTypeLimits,
  {0b3cf742-7d4e-4e3d-8190-1e990d40fdc3}, ! Handle
  On/Off,                                 ! Name
  0,                                      ! Lower Limit Value
  1,                                      ! Upper Limit Value
  DISCRETE;                               ! Numeric Type

OS:Schedule:Day,
  {3f5554f1-5866-41ae-a0a7-58351176ee8a}, ! Handle
  Always On Default Schedule,             ! Name
  {0b3cf742-7d4e-4e3d-8190-1e990d40fdc3}, ! Schedule Type Limits Name
  ,                                       ! Interpolate to Timestep
  24,                                     !- Hour 1
  0,                                      !- Minute 1
  1;                                      !- Value Until Time 1

OS:Schedule:Day,
  {c095a4c7-4145-4420-9166-2a8be51ced5a}, ! Handle
  Always On Summer Design Day,            ! Name
  {0b3cf742-7d4e-4e3d-8190-1e990d40fdc3}, ! Schedule Type Limits Name
  ,                                       ! Interpolate to Timestep
  24,                                     ! Hour 1
  0,                                      ! Minute 1
  1;                                      ! Value Until Time 1

OS:Schedule:Day,
  {227775bc-217d-4eb4-9472-6b1c4ae36ece}, ! Handle
  Always On Winter Design Day,            ! Name
  {0b3cf742-7d4e-4e3d-8190-1e990d40fdc3}, ! Schedule Type Limits Name
  ,                                       ! Interpolate to Timestep
  24,                                     ! Hour 1
  0,                                      ! Minute 1
  1;                                      ! Value Until Time 1

OS:ElectricEquipment:Definition,
  {4eeda88d-aad2-477e-9c7a-fbd93b8ff2bc}, !- Handle
  DOE Ref 1980-2004 - Warehouse - Bulk Electric Equipment Definition, !- Name
  Watts/Area,                             !- Design Level Calculation Method
  ,                                       !- Design Level {W}
  2.69097760417743,                       !- Watts per Space Floor Area {W/m2}
  ;                                       !- Watts per Person {W/person}

OS:ElectricEquipment,
  {8f46d74f-dc73-4520-9133-b45809f838f7}, !- Handle
  DOE Ref 1980-2004 - Warehouse - Bulk Electric Equipment, !- Name
  {4eeda88d-aad2-477e-9c7a-fbd93b8ff2bc}, !- Electric Equipment Definition Name
  {f87fcaf0-a975-4b82-a7be-5b929e4b470d}; !- Space or SpaceType Name

OS:Schedule:Ruleset,
  {67964762-f23a-4367-a0ca-a6595cdf0e38}, ! Handle
  Warehouse Bldg Equip,                   ! Name
  {76739ba7-72b8-4f37-aaf0-797ccde5fcda}, ! Schedule Type Limits Name
  {9da93c1f-1097-4718-97cc-59a127eb7b16}, ! Default Day Schedule Name
  {b679f1f6-fb2b-4b1c-a887-4e198a68ac81}, ! Summer Design Day Schedule Name
  {7ecafcdc-67b7-4485-8fed-5593a5a25fca}; ! Winter Design Day Schedule Name

OS:Schedule:Day,
  {9da93c1f-1097-4718-97cc-59a127eb7b16}, ! Handle
  Warehouse Bldg Equip Default Schedule,  ! Name
  {76739ba7-72b8-4f37-aaf0-797ccde5fcda}, ! Schedule Type Limits Name
  ,                                       ! Interpolate to Timestep
  7,                                      !- Hour 1
  0,                                      !- Minute 1
  0.1,                                    !- Value Until Time 1
  8,                                      !- Hour 2
  0,                                      !- Minute 2
  0.5,                                    !- Value Until Time 2
  9,                                      !- Hour 3
  0,                                      !- Minute 3
  0.8,                                    !- Value Until Time 3
  12,                                     !- Hour 4
  0,                                      !- Minute 4
  0.9,                                    !- Value Until Time 4
  13,                                     !- Hour 5
  0,                                      !- Minute 5
  0.8,                                    !- Value Until Time 5
  17,                                     !- Hour 6
  0,                                      !- Minute 6
  0.9,                                    !- Value Until Time 6
  18,                                     !- Hour 7
  0,                                      !- Minute 7
  0.4,                                    !- Value Until Time 7
  24,                                     !- Hour 8
  0,                                      !- Minute 8
  0.1;                                    !- Value Until Time 8

OS:Schedule:Day,
  {b679f1f6-fb2b-4b1c-a887-4e198a68ac81}, ! Handle
  Warehouse Bldg Equip Summer Design Day, ! Name
  {76739ba7-72b8-4f37-aaf0-797ccde5fcda}, ! Schedule Type Limits Name
  ,                                       ! Interpolate to Timestep
  24,                                     ! Hour 1
  0,                                      ! Minute 1
  1;                                      ! Value Until Time 1

OS:Schedule:Day,
  {7ecafcdc-67b7-4485-8fed-5593a5a25fca}, ! Handle
  Warehouse Bldg Equip Winter Design Day, ! Name
  {76739ba7-72b8-4f37-aaf0-797ccde5fcda}, ! Schedule Type Limits Name
  ,                                       ! Interpolate to Timestep
  24,                                     ! Hour 1
  0,                                      ! Minute 1
  0;                                      ! Value Until Time 1

OS:Schedule:Rule,
  {c0d7719e-de25-4e1a-8c01-3c70d2052d50}, ! Handle
  Warehouse Bldg Equip Rule 1,            ! Name
  {67964762-f23a-4367-a0ca-a6595cdf0e38}, ! Schedule Ruleset Name
  0,                                      ! Rule Order
  {863bdca2-7e4e-4ba2-a792-ed03e1129945}, ! Day Schedule Name
  Yes,                                    ! Apply Sunday
  No,                                     ! Apply Monday
  No,                                     ! Apply Tuesday
  No,                                     ! Apply Wednesday
  No,                                     ! Apply Thursday
  No,                                     ! Apply Friday
  No,                                     ! Apply Saturday
  ,                                       ! Apply Holiday
  DateRange,                              ! Date Specification Type
  1,                                      ! Start Month
  1,                                      ! Start Day
  12,                                     ! End Month
  31;                                     ! End Day

OS:Schedule:Day,
  {863bdca2-7e4e-4ba2-a792-ed03e1129945}, ! Handle
  Warehouse Bldg Equip Rule 1 Day Schedule, ! Name
  {76739ba7-72b8-4f37-aaf0-797ccde5fcda}, ! Schedule Type Limits Name
  ,                                       ! Interpolate to Timestep
  24,                                     ! Hour 1
  0,                                      ! Minute 1
  0.10000000000000001;                    ! Value Until Time 1

OS:Schedule:Rule,
  {0f7cbffc-5d41-4e30-bdf1-4582ff65dfff}, ! Handle
  Warehouse Bldg Equip Rule 2,            ! Name
  {67964762-f23a-4367-a0ca-a6595cdf0e38}, ! Schedule Ruleset Name
  1,                                      ! Rule Order
  {6559227f-5436-43f8-9904-e7199f570cf8}, ! Day Schedule Name
  No,                                     ! Apply Sunday
  No,                                     ! Apply Monday
  No,                                     ! Apply Tuesday
  No,                                     ! Apply Wednesday
  No,                                     ! Apply Thursday
  No,                                     ! Apply Friday
  Yes,                                    ! Apply Saturday
  ,                                       ! Apply Holiday
  DateRange,                              ! Date Specification Type
  1,                                      ! Start Month
  1,                                      ! Start Day
  12,                                     ! End Month
  31;                                     ! End Day

OS:Schedule:Day,
  {6559227f-5436-43f8-9904-e7199f570cf8}, ! Handle
  Warehouse Bldg Equip Rule 2 Day Schedule, ! Name
  {76739ba7-72b8-4f37-aaf0-797ccde5fcda}, ! Schedule Type Limits Name
  ,                                       ! Interpolate to Timestep
  8,                                      ! Hour 1
  0,                                      ! Minute 1
  0.10000000000000001,                    ! Value Until Time 1
  9,                                      ! Hour 2
  0,                                      ! Minute 2
  0.20000000000000001,                    ! Value Until Time 2
  12,                                     ! Hour 3
  0,                                      ! Minute 3
  0.40000000000000002,                    ! Value Until Time 3
  24,                                     ! Hour 4
  0,                                      ! Minute 4
  0.10000000000000001;                    ! Value Until Time 4

OS:ThermostatSetpoint:DualSetpoint,
  {febb3086-6162-486f-ad7e-23e05517c256}, !- Handle
  DOE Ref 1980-2004 - Warehouse - Bulk Thermostat, !- Name
  {28017f82-8132-4148-bd56-bc1645ce3dc2}, !- Heating Setpoint Temperature Schedule Name
  {a1f5ec55-d324-4857-8b5d-0a995a13c3f1}; !- Cooling Setpoint Temperature Schedule Name

OS:Schedule:Ruleset,
  {28017f82-8132-4148-bd56-bc1645ce3dc2}, ! Handle
  Warehouse HtgSetp BulkStorage,          ! Name
  {f20dcb23-6a41-43d5-8499-20863768327d}, ! Schedule Type Limits Name
  {19ad4265-3368-490a-91fb-1493549c14ed}, ! Default Day Schedule Name
  {33e624c8-81c6-4da0-84e7-86b20fda01bd}, ! Summer Design Day Schedule Name
  {16d9ba73-81bf-4312-ba35-2bb4a2cb703c}; ! Winter Design Day Schedule Name

OS:ScheduleTypeLimits,
  {f20dcb23-6a41-43d5-8499-20863768327d}, !- Handle
  Temperature 24,                         !- Name
  ,                                       !- Lower Limit Value {BasedOnField A4}
  ,                                       !- Upper Limit Value {BasedOnField A4}
  Continuous,                             !- Numeric Type
  Temperature;                            !- Unit Type

OS:Schedule:Day,
  {19ad4265-3368-490a-91fb-1493549c14ed}, ! Handle
  Warehouse HtgSetp BulkStorage Default Schedule, ! Name
  {f20dcb23-6a41-43d5-8499-20863768327d}, ! Schedule Type Limits Name
  ,                                       ! Interpolate to Timestep
  24,                                     !- Hour 1
  0,                                      !- Minute 1
  7.2;                                    !- Value Until Time 1

OS:Schedule:Day,
  {33e624c8-81c6-4da0-84e7-86b20fda01bd}, ! Handle
  Warehouse HtgSetp BulkStorage Summer Design Day, ! Name
  {f20dcb23-6a41-43d5-8499-20863768327d}, ! Schedule Type Limits Name
  ,                                       ! Interpolate to Timestep
  24,                                     ! Hour 1
  0,                                      ! Minute 1
  7.2000000000000002;                     ! Value Until Time 1

OS:Schedule:Day,
  {16d9ba73-81bf-4312-ba35-2bb4a2cb703c}, ! Handle
  Warehouse HtgSetp BulkStorage Winter Design Day, ! Name
  {f20dcb23-6a41-43d5-8499-20863768327d}, ! Schedule Type Limits Name
  ,                                       ! Interpolate to Timestep
  24,                                     ! Hour 1
  0,                                      ! Minute 1
  7.2000000000000002;                     ! Value Until Time 1

OS:Schedule:Ruleset,
  {a1f5ec55-d324-4857-8b5d-0a995a13c3f1}, ! Handle
  Warehouse ClgSetp,                      ! Name
  {1305d7e5-f10c-4ce8-b446-2bffd4a5aa8c}, ! Schedule Type Limits Name
  {7e361845-0510-4c08-8972-4feb5a76be52}, ! Default Day Schedule Name
  {16606248-f974-46d3-844e-4959ff99f071}, ! Summer Design Day Schedule Name
  {8a8716db-1bd0-4d60-a2d7-dc7c82baeca0}; ! Winter Design Day Schedule Name

OS:ScheduleTypeLimits,
  {1305d7e5-f10c-4ce8-b446-2bffd4a5aa8c}, !- Handle
  Temperature 46,                         !- Name
  ,                                       !- Lower Limit Value {BasedOnField A4}
  ,                                       !- Upper Limit Value {BasedOnField A4}
  Continuous,                             !- Numeric Type
  Temperature;                            !- Unit Type

OS:Schedule:Day,
  {7e361845-0510-4c08-8972-4feb5a76be52}, ! Handle
  Warehouse ClgSetp Default Schedule,     ! Name
  {1305d7e5-f10c-4ce8-b446-2bffd4a5aa8c}, ! Schedule Type Limits Name
  ,                                       ! Interpolate to Timestep
  7,                                      !- Hour 1
  0,                                      !- Minute 1
  30,                                     !- Value Until Time 1
  17,                                     !- Hour 2
  0,                                      !- Minute 2
  24,                                     !- Value Until Time 2
  24,                                     !- Hour 3
  0,                                      !- Minute 3
  30;                                     !- Value Until Time 3

OS:Schedule:Day,
  {16606248-f974-46d3-844e-4959ff99f071}, ! Handle
  Warehouse ClgSetp Summer Design Day,    ! Name
  {1305d7e5-f10c-4ce8-b446-2bffd4a5aa8c}, ! Schedule Type Limits Name
  ,                                       ! Interpolate to Timestep
  7,                                      ! Hour 1
  0,                                      ! Minute 1
  30,                                     ! Value Until Time 1
  17,                                     ! Hour 2
  0,                                      ! Minute 2
  24,                                     ! Value Until Time 2
  24,                                     ! Hour 3
  0,                                      ! Minute 3
  30;                                     ! Value Until Time 3

OS:Schedule:Day,
  {8a8716db-1bd0-4d60-a2d7-dc7c82baeca0}, ! Handle
  Warehouse ClgSetp Winter Design Day,    ! Name
  {1305d7e5-f10c-4ce8-b446-2bffd4a5aa8c}, ! Schedule Type Limits Name
  ,                                       ! Interpolate to Timestep
  24,                                     ! Hour 1
  0,                                      ! Minute 1
  30;                                     ! Value Until Time 1

OS:Schedule:Rule,
  {7988fd13-3b61-4a7f-8ec3-fa6f8e9da96c}, ! Handle
  Warehouse ClgSetp Rule 1,               ! Name
  {a1f5ec55-d324-4857-8b5d-0a995a13c3f1}, ! Schedule Ruleset Name
  0,                                      ! Rule Order
  {f3f186b2-220b-47b1-a758-09bc52494595}, ! Day Schedule Name
  Yes,                                    ! Apply Sunday
  No,                                     ! Apply Monday
  No,                                     ! Apply Tuesday
  No,                                     ! Apply Wednesday
  No,                                     ! Apply Thursday
  No,                                     ! Apply Friday
  No,                                     ! Apply Saturday
  ,                                       ! Apply Holiday
  DateRange,                              ! Date Specification Type
  1,                                      ! Start Month
  1,                                      ! Start Day
  12,                                     ! End Month
  31;                                     ! End Day

OS:Schedule:Day,
  {f3f186b2-220b-47b1-a758-09bc52494595}, ! Handle
  Warehouse ClgSetp Rule 1 Day Schedule,  ! Name
  {1305d7e5-f10c-4ce8-b446-2bffd4a5aa8c}, ! Schedule Type Limits Name
  ,                                       ! Interpolate to Timestep
  24,                                     ! Hour 1
  0,                                      ! Minute 1
  30;                                     ! Value Until Time 1

OS:Schedule:Rule,
  {081b1e28-0b4f-4ae1-8317-9a7cfb1a37d7}, ! Handle
  Warehouse ClgSetp Rule 2,               ! Name
  {a1f5ec55-d324-4857-8b5d-0a995a13c3f1}, ! Schedule Ruleset Name
  1,                                      ! Rule Order
  {7a2dae80-de43-448c-b6f1-360b52617b12}, ! Day Schedule Name
  No,                                     ! Apply Sunday
  No,                                     ! Apply Monday
  No,                                     ! Apply Tuesday
  No,                                     ! Apply Wednesday
  No,                                     ! Apply Thursday
  No,                                     ! Apply Friday
  Yes,                                    ! Apply Saturday
  ,                                       ! Apply Holiday
  DateRange,                              ! Date Specification Type
  1,                                      ! Start Month
  1,                                      ! Start Day
  12,                                     ! End Month