
OS:Version,
  {b7041808-e4ce-4803-b4b5-2ad74ad69732}, !- Handle
  1.7.0;                                  !- Version Identifier

OS:ClimateZones,
  {7917a81b-1dd4-4d86-906d-c09b8b620a5c}, !- Handle
  ,                                       !- Active Institution
  ,                                       !- Active Year
  ASHRAE,                                 !- Climate Zone Institution Name 1
  ANSI/ASHRAE Standard 169,               !- Climate Zone Document Name 1
  2006,                                   !- Climate Zone Document Year 1
  ,                                       !- Climate Zone Value 1
  CEC,                                    !- Climate Zone Institution Name 2
  California Climate Zone Descriptions,   !- Climate Zone Document Name 2
  1995,                                   !- Climate Zone Document Year 2
  ;                                       !- Climate Zone Value 2

OS:LifeCycleCost:Parameters,
  {48e78797-8c4c-45c4-9452-55cfa4a39745}, !- Handle
  FEMP,                                   !- Analysis Type
  ,                                       !- Discounting Convention
  ,                                       !- Inflation Approach
  ,                                       !- Real Discount Rate
  ,                                       !- Nominal Discount Rate
  ,                                       !- Inflation
  ,                                       !- Base Date Month
  ,                                       !- Base Date Year
  ,                                       !- Service Date Month
  ,                                       !- Service Date Year
  ,                                       !- Length of Study Period in Years
  ,                                       !- Tax Rate
  ,                                       !- Depreciation Method
  Yes;                                    !- Use NIST Fuel Escalation Rates

OS:YearDescription,
  {0c17469c-e7f2-45ec-8b27-3c04221cb870}; !- Handle

OS:Building,
  {15e6849d-d670-4429-bf40-dfce6eeb5938}, !- Handle
  Building 1,                             !- Name
  ,                                       !- Building Sector Type
  ,                                       !- North Axis {deg}
  ,                                       !- Nominal Floor to Floor Height {m}
  {8b04d098-ff15-4897-906b-c9b6c1a489fd}, !- Space Type Name
  {3e743667-d3e9-4621-a7bf-4c04899cf64e}, !- Default Construction Set Name
  ,                                       !- Default Schedule Set Name
  ,                                       !- Standards Number of Stories
  ,                                       !- Standards Number of Above Ground Stories
  ,                                       !- Standards Building Type
  ,                                       !- Standards Number of Living Units
  ,                                       !- Relocatable
  ;                                       !- Nominal Floor to Ceiling Height {m}

OS:Facility,
  {481186c9-00e1-473c-ad17-6de3586419df}; !- Handle

OS:SpaceType,
  {153326b7-27c8-4e00-8d28-3b3ea8758177}, !- Handle
  Space Type 3,                           !- Name
  ,                                       !- Default Construction Set Name
  ,                                       !- Default Schedule Set Name
  {92d71cb4-770a-48fa-be70-047d8761fe15}; !- Group Rendering Name

OS:Rendering:Color,
  {92d71cb4-770a-48fa-be70-047d8761fe15}, !- Handle
  Rendering Color 1,                      !- Name
  0,                                      !- Rendering Red Value
  206,                                    !- Rendering Green Value
  209;                                    !- Rendering Blue Value

OS:SpaceType,
  {51bd7737-905e-4f4c-bd78-949da7d3ea9b}, !- Handle
  Space Type 2,                           !- Name
  ,                                       !- Default Construction Set Name
  ,                                       !- Default Schedule Set Name
  {b81c8a5c-aa16-4b0f-9b89-5fac59fedd2b}; !- Group Rendering Name

OS:Rendering:Color,
  {b81c8a5c-aa16-4b0f-9b89-5fac59fedd2b}, !- Handle
  Rendering Color 2,                      !- Name
  255,                                    !- Rendering Red Value
  255,                                    !- Rendering Green Value
  240;                                    !- Rendering Blue Value

OS:BuildingStory,
  {193e0037-bc08-41d9-b0d1-9e98909af540}, !- Handle
  Building Story 1,                       !- Name
  0,                                      !- Nominal Z Coordinate {m}
  3.048,                                  !- Nominal Floor to Floor Height {m}
  ,                                       !- Default Construction Set Name
  ,                                       !- Default Schedule Set Name
  {51b7e0c1-c798-4ded-9615-24968b5a7791}; !- Group Rendering Name

OS:Space,
  {63b18ab0-f27a-4330-b224-eabefc52c3f9}, !- Handle
  Space 101,                              !- Name
  ,                                       !- Space Type Name
  ,                                       !- Default Construction Set Name
  ,                                       !- Default Schedule Set Name
  ,                                       !- Direction of Relative North {deg}
  1.60488333705578,                       !- X Origin {m}
  0.728066321234457,                      !- Y Origin {m}
  0,                                      !- Z Origin {m}
  {193e0037-bc08-41d9-b0d1-9e98909af540}, !- Building Story Name
  ,                                       !- Thermal Zone Name
  ,                                       !- Part of Total Floor Area
  ;                                       !- Design Specification Outdoor Air Object Name

OS:Surface,
  {787ab635-73a9-4e86-92d5-1a4c5c49043a}, !- Handle
  Surface 1,                              !- Name
  Floor,                                  !- Surface Type
  ,                                       !- Construction Name
  {63b18ab0-f27a-4330-b224-eabefc52c3f9}, !- Space Name
  Ground,                                 !- Outside Boundary Condition
  ,                                       !- Outside Boundary Condition Object
  NoSun,                                  !- Sun Exposure
  NoWind,                                 !- Wind Exposure
  ,                                       !- View Factor to Ground
  ,                                       !- Number of Vertices
  4.36245, 4.4751625, 0,                  !- X,Y,Z Vertex 1 {m}
  4.36245, 0, 0,                          !- X,Y,Z Vertex 2 {m}
  0, 0, 0,                                !- X,Y,Z Vertex 3 {m}
  0, 4.4751625, 0;                        !- X,Y,Z Vertex 4 {m}

OS:Surface,
  {d3a7d94a-988e-4438-a725-2c5ff9c57a0e}, !- Handle
  Surface 2,                              !- Name
  Wall,                                   !- Surface Type
  ,                                       !- Construction Name
  {63b18ab0-f27a-4330-b224-eabefc52c3f9}, !- Space Name
  Outdoors,                               !- Outside Boundary Condition
  ,                                       !- Outside Boundary Condition Object
  SunExposed,                             !- Sun Exposure
  WindExposed,                            !- Wind Exposure
  ,                                       !- View Factor to Ground
  ,                                       !- Number of Vertices
  0, 4.4751625, 3.048,                    !- X,Y,Z Vertex 1 {m}
  0, 4.4751625, 0,                        !- X,Y,Z Vertex 2 {m}
  0, 0, 0,                                !- X,Y,Z Vertex 3 {m}
  0, 0, 3.048;                            !- X,Y,Z Vertex 4 {m}

OS:Surface,
  {50999773-6ee8-4c38-9537-71562f5ca178}, !- Handle
  Surface 3,                              !- Name
  Wall,                                   !- Surface Type
  ,                                       !- Construction Name
  {63b18ab0-f27a-4330-b224-eabefc52c3f9}, !- Space Name
  Outdoors,                               !- Outside Boundary Condition
  ,                                       !- Outside Boundary Condition Object
  SunExposed,                             !- Sun Exposure
  WindExposed,                            !- Wind Exposure
  ,                                       !- View Factor to Ground
  ,                                       !- Number of Vertices
  4.36245, 4.4751625, 3.048,              !- X,Y,Z Vertex 1 {m}
  4.36245, 4.4751625, 0,                  !- X,Y,Z Vertex 2 {m}
  0, 4.4751625, 0,                        !- X,Y,Z Vertex 3 {m}
  0, 4.4751625, 3.048;                    !- X,Y,Z Vertex 4 {m}

OS:Surface,
  {b62126d9-d36b-4b4f-a8a4-c34bd64561ed}, !- Handle
  Surface 4,                              !- Name
  Wall,                                   !- Surface Type
  ,                                       !- Construction Name
  {63b18ab0-f27a-4330-b224-eabefc52c3f9}, !- Space Name
  Outdoors,                               !- Outside Boundary Condition
  ,                                       !- Outside Boundary Condition Object
  SunExposed,                             !- Sun Exposure
  WindExposed,                            !- Wind Exposure
  ,                                       !- View Factor to Ground
  ,                                       !- Number of Vertices
  4.36245, 0, 3.048,                      !- X,Y,Z Vertex 1 {m}
  4.36245, 0, 0,                          !- X,Y,Z Vertex 2 {m}
  4.36245, 4.4751625, 0,                  !- X,Y,Z Vertex 3 {m}
  4.36245, 4.4751625, 3.048;              !- X,Y,Z Vertex 4 {m}

OS:Surface,
  {b354a386-c074-4d65-9645-3027839b91a1}, !- Handle
  Surface 5,                              !- Name
  Wall,                                   !- Surface Type
  ,                                       !- Construction Name
  {63b18ab0-f27a-4330-b224-eabefc52c3f9}, !- Space Name
  Outdoors,                               !- Outside Boundary Condition
  ,                                       !- Outside Boundary Condition Object
  SunExposed,                             !- Sun Exposure
  WindExposed,                            !- Wind Exposure
  ,                                       !- View Factor to Ground
  ,                                       !- Number of Vertices
  0, 0, 3.048,                            !- X,Y,Z Vertex 1 {m}
  0, 0, 0,                                !- X,Y,Z Vertex 2 {m}
  4.36245, 0, 0,                          !- X,Y,Z Vertex 3 {m}
  4.36245, 0, 3.048;                      !- X,Y,Z Vertex 4 {m}

OS:Surface,
  {bfcdf04b-407f-4d7c-9b8c-63ab7a17a279}, !- Handle
  Surface 6,                              !- Name
  RoofCeiling,                            !- Surface Type
  ,                                       !- Construction Name
  {63b18ab0-f27a-4330-b224-eabefc52c3f9}, !- Space Name
  Outdoors,                               !- Outside Boundary Condition
  ,                                       !- Outside Boundary Condition Object
  SunExposed,                             !- Sun Exposure
  WindExposed,                            !- Wind Exposure
  ,                                       !- View Factor to Ground
  ,                                       !- Number of Vertices
  4.36245, 0, 3.048,                      !- X,Y,Z Vertex 1 {m}
  4.36245, 4.4751625, 3.048,              !- X,Y,Z Vertex 2 {m}
  0, 4.4751625, 3.048,                    !- X,Y,Z Vertex 3 {m}
  0, 0, 3.048;                            !- X,Y,Z Vertex 4 {m}

OS:Rendering:Color,
  {51b7e0c1-c798-4ded-9615-24968b5a7791}, !- Handle
  Rendering Color 3,                      !- Name
  199,                                    !- Rendering Red Value
  21,                                     !- Rendering Green Value
  133;                                    !- Rendering Blue Value

OS:SubSurface,
  {560fe793-9469-4986-bf9f-89eedff93359}, !- Handle
  Sub Surface 1,                          !- Name
  FixedWindow,                            !- Sub Surface Type
  ,                                       !- Construction Name
  {b354a386-c074-4d65-9645-3027839b91a1}, !- Surface Name
  ,                                       !- Outside Boundary Condition Object
  ,                                       !- View Factor to Ground
  ,                                       !- Shading Control Name
  ,                                       !- Frame and Divider Name
  ,                                       !- Multiplier
  ,                                       !- Number of Vertices
  0.61281941084033, -1.80477854883065e-016, 2.57434486341688, !- X,Y,Z Vertex 1 {m}
  0.61281941084033, -1.80477854883065e-016, 1.52500736341688, !- X,Y,Z Vertex 2 {m}
  1.82090691084033, -1.80477854883065e-016, 1.52500736341688, !- X,Y,Z Vertex 3 {m}
  1.82090691084033, -1.80477854883065e-016, 2.57434486341688; !- X,Y,Z Vertex 4 {m}

OS:SubSurface,
  {a408ec5f-58b4-4211-b790-a10b561096a4}, !- Handle
  Sub Surface 2,                          !- Name
  FixedWindow,                            !- Sub Surface Type
  ,                                       !- Construction Name
  {b354a386-c074-4d65-9645-3027839b91a1}, !- Surface Name
  ,                                       !- Outside Boundary Condition Object
  ,                                       !- View Factor to Ground
  ,                                       !- Shading Control Name
  ,                                       !- Frame and Divider Name
  ,                                       !- Multiplier
  ,                                       !- Number of Vertices
  3.05302829060462, -1.80477854883065e-016, 2.55011983177383, !- X,Y,Z Vertex 1 {m}
  3.05302829060462, -1.80477854883065e-016, 1.61349483177383, !- X,Y,Z Vertex 2 {m}
  3.81661579060462, -1.80477854883065e-016, 1.61349483177383, !- X,Y,Z Vertex 3 {m}
  3.81661579060462, -1.80477854883065e-016, 2.55011983177383; !- X,Y,Z Vertex 4 {m}

OS:SubSurface,
  {cdbdef05-61b5-4344-844c-746a4a918332}, !- Handle
  Sub Surface 3,                          !- Name
  Door,                                   !- Sub Surface Type
  ,                                       !- Construction Name
  {b62126d9-d36b-4b4f-a8a4-c34bd64561ed}, !- Surface Name
  ,                                       !- Outside Boundary Condition Object
  ,                                       !- View Factor to Ground
  ,                                       !- Shading Control Name
  ,                                       !- Frame and Divider Name
  ,                                       !- Multiplier
  ,                                       !- Number of Vertices
  4.36245, 0.744788605715892, 2.04719727884095, !- X,Y,Z Vertex 1 {m}
  4.36245, 0.744788605715892, 0,          !- X,Y,Z Vertex 2 {m}
  4.36245, 2.01002610571589, 0,           !- X,Y,Z Vertex 3 {m}
  4.36245, 2.01002610571589, 2.04719727884095; !- X,Y,Z Vertex 4 {m}

OS:SpaceType,
  {d820ea1e-17a7-4c3d-8b5b-0f160b5cc503}, !- Handle
  189.1-2009 - Office - BreakRoom - CZ4-8, !- Name
  ,                                       !- Default Construction Set Name
  {a7da5d85-5018-45c1-92e1-1b37f913fea4}, !- Default Schedule Set Name
  {be1cc76f-3cfa-4cdd-9394-4b530bf53a1c}, !- Group Rendering Name
  {59b22241-c5ac-45d1-93ba-a0f23216f6eb}, !- Design Specification Outdoor Air Object Name
  Office,                                 !- Standards Building Type
  BreakRoom;                              !- Standards Space Type

OS:Rendering:Color,
  {be1cc76f-3cfa-4cdd-9394-4b530bf53a1c}, !- Handle
  Rendering Color 4,                      !- Name
  230,                                    !- Rendering Red Value
  157,                                    !- Rendering Green Value
  120;                                    !- Rendering Blue Value

OS:DefaultScheduleSet,
  {a7da5d85-5018-45c1-92e1-1b37f913fea4}, !- Handle
  189.1-2009 - Office - BreakRoom - CZ4-8 Schedule Set, !- Name
  ,                                       !- Hours of Operation Schedule Name
  {e3128007-a969-4bb1-8aa7-137bdd764cdd}, !- Number of People Schedule Name
  {d906366f-4d1b-4e46-bce5-8db2b6b9478e}, !- People Activity Level Schedule Name
  {6e13389b-a836-40d2-bed9-4ff53a4f05f5}, !- Lighting Schedule Name
  {18b674a1-b375-409d-bbb6-a4dbb88c61d7}, !- Electric Equipment Schedule Name
  ,                                       !- Gas Equipment Schedule Name
  ,                                       !- Hot Water Equipment Schedule Name
  {679c29ff-d811-4ed6-aaad-455cdac1cade}, !- Infiltration Schedule Name
  ,                                       !- Steam Equipment Schedule Name
  ;                                       !- Other Equipment Schedule Name

OS:Lights:Definition,
  {a8834ddf-34a9-4c17-bf20-7ce74d269cf7}, !- Handle
  189.1-2009 - Office - BreakRoom - CZ4-8 Lights Definition, !- Name
  Watts/Area,                             !- Design Level Calculation Method
  ,                                       !- Lighting Level {W}
  11.6250232500465,                       !- Watts per Space Floor Area {W/m2}
  ;                                       !- Watts per Person {W/person}

OS:Lights,
  {53b76556-77fa-4fdb-b184-eb201340411e}, !- Handle
  189.1-2009 - Office - BreakRoom - CZ4-8 Lights, !- Name
  {a8834ddf-34a9-4c17-bf20-7ce74d269cf7}, !- Lights Definition Name
  {d820ea1e-17a7-4c3d-8b5b-0f160b5cc503}; !- Space or SpaceType Name

OS:Schedule:Ruleset,
  {6e13389b-a836-40d2-bed9-4ff53a4f05f5}, ! Handle
  Office Bldg Light,                      ! Name
  {28e41376-bbde-4d0d-9310-235c288ccabb}, ! Schedule Type Limits Name
  {a6d52518-0e01-4e5c-996c-f7398f03d6f1}, ! Default Day Schedule Name
  {5e88e9a1-d1e9-4651-9ee7-5c6785832eb7}, ! Summer Design Day Schedule Name
  {176e83b2-5069-434c-bdd2-38804284dba4}; ! Winter Design Day Schedule Name

OS:ScheduleTypeLimits,
  {28e41376-bbde-4d0d-9310-235c288ccabb}, ! Handle
  Fraction,                               ! Name
  0,                                      ! Lower Limit Value
  1,                                      ! Upper Limit Value
  CONTINUOUS;                             ! Numeric Type

OS:Schedule:Day,
  {a6d52518-0e01-4e5c-996c-f7398f03d6f1}, ! Handle
  Office Bldg Light Default Schedule,     ! Name
  {28e41376-bbde-4d0d-9310-235c288ccabb}, ! Schedule Type Limits Name
  ,                                       ! Interpolate to Timestep
  5,                                      !- Hour 1
  0,                                      !- Minute 1
  0.05,                                   !- Value Until Time 1
  7,                                      !- Hour 2
  0,                                      !- Minute 2
  0.1,                                    !- Value Until Time 2
  8,                                      !- Hour 3
  0,                                      !- Minute 3
  0.3,                                    !- Value Until Time 3
  17,                                     !- Hour 4
  0,                                      !- Minute 4
  0.9,                                    !- Value Until Time 4
  18,                                     !- Hour 5
  0,                                      !- Minute 5
  0.7,                                    !- Value Until Time 5
  20,                                     !- Hour 6
  0,                                      !- Minute 6
  0.5,                                    !- Value Until Time 6
  22,                                     !- Hour 7
  0,                                      !- Minute 7
  0.3,                                    !- Value Until Time 7
  23,                                     !- Hour 8
  0,                                      !- Minute 8
  0.1,                                    !- Value Until Time 8
  24,                                     !- Hour 9
  0,                                      !- Minute 9
  0.05;                                   !- Value Until Time 9

OS:Schedule:Day,
  {5e88e9a1-d1e9-4651-9ee7-5c6785832eb7}, ! Handle
  Office Bldg Light Summer Design Day,    ! Name
  {28e41376-bbde-4d0d-9310-235c288ccabb}, ! Schedule Type Limits Name
  ,                                       ! Interpolate to Timestep
  24,                                     ! Hour 1
  0,                                      ! Minute 1
  1;                                      ! Value Until Time 1

OS:Schedule:Day,
  {176e83b2-5069-434c-bdd2-38804284dba4}, ! Handle
  Office Bldg Light Winter Design Day,    ! Name
  {28e41376-bbde-4d0d-9310-235c288ccabb}, ! Schedule Type Limits Name
  ,                                       ! Interpolate to Timestep
  24,                                     ! Hour 1
  0,                                      ! Minute 1
  0;                                      ! Value Until Time 1

OS:Schedule:Rule,
  {5a097ae4-9106-4a35-a0d5-680e18bc67ef}, ! Handle
  Office Bldg Light Rule 1,               ! Name
  {6e13389b-a836-40d2-bed9-4ff53a4f05f5}, ! Schedule Ruleset Name
  0,                                      ! Rule Order
  {734ff107-f2a7-4dd8-b071-94209d7b1e24}, ! Day Schedule Name
  Yes,                                    ! Apply Sunday
  No,                                     ! Apply Monday
  No,                                     ! Apply Tuesday
  No,                                     ! Apply Wednesday
  No,                                     ! Apply Thursday
  No,                                     ! Apply Friday
  No,                                     ! Apply Saturday
  ,                                       ! Apply Holiday
  DateRange,                              ! Date Specification Type
  1,                                      ! Start Month
  1,                                      ! Start Day
  12,                                     ! End Month
  31;                                     ! End Day

OS:Schedule:Day,
  {734ff107-f2a7-4dd8-b071-94209d7b1e24}, ! Handle
  Office Bldg Light Rule 1 Day Schedule,  ! Name
  {28e41376-bbde-4d0d-9310-235c288ccabb}, ! Schedule Type Limits Name
  ,                                       ! Interpolate to Timestep
  24,                                     ! Hour 1
  0,                                      ! Minute 1
  0.050000000000000003;                   ! Value Until Time 1

OS:Schedule:Rule,
  {678f59d6-92a0-490f-92f6-ab1cdf95c1a0}, ! Handle
  Office Bldg Light Rule 2,               ! Name
  {6e13389b-a836-40d2-bed9-4ff53a4f05f5}, ! Schedule Ruleset Name
  1,                                      ! Rule Order
  {7dffc049-bee6-4d96-aa07-f50fa1c59eac}, ! Day Schedule Name
  No,                                     ! Apply Sunday
  No,                                     ! Apply Monday
  No,                                     ! Apply Tuesday
  No,                                     ! Apply Wednesday
  No,                                     ! Apply Thursday
  No,                                     ! Apply Friday
  Yes,                                    ! Apply Saturday
  ,                                       ! Apply Holiday
  DateRange,                              ! Date Specification Type
  1,                                      ! Start Month
  1,                                      ! Start Day
  12,                                     ! End Month
  31;                                     ! End Day

OS:Schedule:Day,
  {7dffc049-bee6-4d96-aa07-f50fa1c59eac}, ! Handle
  Office Bldg Light Rule 2 Day Schedule,  ! Name
  {28e41376-bbde-4d0d-9310-235c288ccabb}, ! Schedule Type Limits Name
  ,                                       ! Interpolate to Timestep
  6,                                      ! Hour 1
  0,                                      ! Minute 1
  0.050000000000000003,                   ! Value Until Time 1
  8,                                      ! Hour 2
  0,                                      ! Minute 2
  0.10000000000000001,                    ! Value Until Time 2
  14,                                     ! Hour 3
  0,                                      ! Minute 3
  0.5,                                    ! Value Until Time 3
  17,                                     ! Hour 4
  0,                                      ! Minute 4
  0.14999999999999999,                    ! Value Until Time 4
  24,                                     ! Hour 5
  0,                                      ! Minute 5
  0.050000000000000003;                   ! Value Until Time 5

OS:DesignSpecification:OutdoorAir,
  {59b22241-c5ac-45d1-93ba-a0f23216f6eb}, !- Handle
  189.1-2009 - Office - BreakRoom - CZ4-8 Ventilation, !- Name
  Sum,                                    !- Outdoor Air Method
  0.007079211648,                         !- Outdoor Air Flow per Person {m3/s-person}
  ,                                       !- Outdoor Air Flow per Floor Area {m3/s-m2}
  ,                                       !- Outdoor Air Flow Rate {m3/s}
  ,                                       !- Outdoor Air Flow Air Changes per Hour {1/hr}
  ;                                       !- Outdoor Air Flow Rate Fraction Schedule Name

OS:People:Definition,
  {bbeaf0b8-102f-4e31-af13-4eae3618984c}, !- Handle
  189.1-2009 - Office - BreakRoom - CZ4-8 People Definition, !- Name
  People/Area,                            !- Number of People Calculation Method
  ,                                       !- Number of People {people}
  0.538195520835486,                      !- People per Space Floor Area {person/m2}
  ,                                       !- Space Floor Area per Person {m2/person}
  0.3;                                    !- Fraction Radiant

OS:People,
  {b9cbf6a8-5f61-4ebe-a422-2c0ee4c75006}, !- Handle
  189.1-2009 - Office - BreakRoom - CZ4-8 People, !- Name
  {bbeaf0b8-102f-4e31-af13-4eae3618984c}, !- People Definition Name
  {d820ea1e-17a7-4c3d-8b5b-0f160b5cc503}; !- Space or SpaceType Name

OS:Schedule:Ruleset,
  {e3128007-a969-4bb1-8aa7-137bdd764cdd}, ! Handle
  Office Misc Occ,                        ! Name
  {28e41376-bbde-4d0d-9310-235c288ccabb}, ! Schedule Type Limits Name
  {87a92a03-f370-4eca-b637-af29c7a73ae7}, ! Default Day Schedule Name
  {eb9e7a7e-0346-4a09-9cb6-396c6619970f}, ! Summer Design Day Schedule Name
  {b76d287e-91a1-4afc-8cd8-fda02f5399db}; ! Winter Design Day Schedule Name

OS:Schedule:Day,
  {87a92a03-f370-4eca-b637-af29c7a73ae7}, ! Handle
  Office Bldg Occ Default Schedule 1,     ! Name
  {28e41376-bbde-4d0d-9310-235c288ccabb}, ! Schedule Type Limits Name
  ,                                       ! Interpolate to Timestep
  6,                                      !- Hour 1
  0,                                      !- Minute 1
  0,                                      !- Value Until Time 1
  7,                                      !- Hour 2
  0,                                      !- Minute 2
  0.100000001490116,                      !- Value Until Time 2
  8,                                      !- Hour 3
  0,                                      !- Minute 3
  0.200000002980232,                      !- Value Until Time 3
  20,                                     !- Hour 4
  0,                                      !- Minute 4
  0.400000005960464,                      !- Value Until Time 4
  22,                                     !- Hour 5
  0,                                      !- Minute 5
  0.100000001490116,                      !- Value Until Time 5
  24,                                     !- Hour 6
  0,                                      !- Minute 6
  0.0500000007450581;                     !- Value Until Time 6

OS:Schedule:Day,
  {eb9e7a7e-0346-4a09-9cb6-396c6619970f}, ! Handle
  Office Bldg Occ Summer Design Day 1,    ! Name
  {28e41376-bbde-4d0d-9310-235c288ccabb}, ! Schedule Type Limits Name
  ,                                       ! Interpolate to Timestep
  6,                                      ! Hour 1
  0,                                      ! Minute 1
  0,                                      ! Value Until Time 1
  22,                                     ! Hour 2
  0,                                      ! Minute 2
  1,                                      ! Value Until Time 2
  24,                                     ! Hour 3
  0,                                      ! Minute 3
  0.050000000000000003;                   ! Value Until Time 3

OS:Schedule:Day,
  {b76d287e-91a1-4afc-8cd8-fda02f5399db}, ! Handle
  Office Bldg Occ Winter Design Day 1,    ! Name
  {28e41376-bbde-4d0d-9310-235c288ccabb}, ! Schedule Type Limits Name
  ,                                       ! Interpolate to Timestep
  24,                                     ! Hour 1
  0,                                      ! Minute 1
  0;                                      ! Value Until Time 1

OS:Schedule:Rule,
  {c502cc9a-21e2-4c02-a08c-5913c0268a96}, ! Handle
  Office Misc Occ Rule 1,                 ! Name
  {e3128007-a969-4bb1-8aa7-137bdd764cdd}, ! Schedule Ruleset Name
  0,                                      ! Rule Order
  {d2233850-b019-40a3-9035-3893cef51ffc}, ! Day Schedule Name
  Yes,                                    ! Apply Sunday
  No,                                     ! Apply Monday
  No,                                     ! Apply Tuesday
  No,                                     ! Apply Wednesday
  No,                                     ! Apply Thursday
  No,                                     ! Apply Friday
  No,                                     ! Apply Saturday
  ,                                       ! Apply Holiday
  DateRange,                              ! Date Specification Type
  1,                                      ! Start Month
  1,                                      ! Start Day
  12,                                     ! End Month
  31;                                     ! End Day

OS:Schedule:Day,
  {d2233850-b019-40a3-9035-3893cef51ffc}, ! Handle
  Office Bldg Occ Rule 1 Day Schedule 1,  ! Name
  {28e41376-bbde-4d0d-9310-235c288ccabb}, ! Schedule Type Limits Name
  ,                                       ! Interpolate to Timestep
  24,                                     ! Hour 1
  0,                                      ! Minute 1
  0;                                      ! Value Until Time 1

OS:Schedule:Rule,
  {c15a0fcb-d1bb-487e-a8a4-71895394dd85}, ! Handle