
OS:Version,
  {ee2300ee-fbb5-4d5a-9984-5b0f8d899bea}, !- Handle
  1.4.1;                                  !- Version Identifier

OS:BuildingStory,
  {518e4ebe-3388-4297-a55e-21adc48e3ba1}, !- Handle
  Story 1,                                !- Name
  0,                                      !- Nominal Z Coordinate {m}
  3.048,                                  !- Nominal Floor to Floor Height {m}
  ,                                       !- Default Construction Set Name
  ,                                       !- Default Schedule Set Name
  ;                                       !- Group Rendering Name

OS:Space,
  {f6e3d8e5-5671-4b2d-b94d-e5e1844a5e1e}, !- Handle
  Story 1 West Perimeter Space,           !- Name
  ,                                       !- Space Type Name
  ,                                       !- Default Construction Set Name
  ,                                       !- Default Schedule Set Name
  -0,                                     !- Direction of Relative North {deg}
  0,                                      !- X Origin {m}
  0,                                      !- Y Origin {m}
  0,                                      !- Z Origin {m}
  {518e4ebe-3388-4297-a55e-21adc48e3ba1}, !- Building Story Name
  {39b2c40a-31ff-43a8-ba11-7b76ee1b3bdb}; !- Thermal Zone Name

OS:Surface,
  {4d0edc14-f7b9-4091-ad06-155a549c1791}, !- Handle
  Surface 1,                              !- Name
  Floor,                                  !- Surface Type
  ,                                       !- Construction Name
  {f6e3d8e5-5671-4b2d-b94d-e5e1844a5e1e}, !- Space Name
  Ground,                                 !- Outside Boundary Condition
  ,                                       !- Outside Boundary Condition Object
  NoSun,                                  !- Sun Exposure
  NoWind,                                 !- Wind Exposure
  ,                                       !- View Factor to Ground
  ,                                       !- Number of Vertices
  0, 0, 0,                                !- X,Y,Z Vertex 1 {m}
  0, 15.24, 0,                            !- X,Y,Z Vertex 2 {m}
  4.57, 10.67, 0,                         !- X,Y,Z Vertex 3 {m}
  4.57, 4.57, 0;                          !- X,Y,Z Vertex 4 {m}

OS:Surface,
  {ee683801-8c0e-45be-bc85-5d1b774281a6}, !- Handle
  Surface 2,                              !- Name
  Wall,                                   !- Surface Type
  ,                                       !- Construction Name
  {f6e3d8e5-5671-4b2d-b94d-e5e1844a5e1e}, !- Space Name
  Outdoors,                               !- Outside Boundary Condition
  ,                                       !- Outside Boundary Condition Object
  SunExposed,                             !- Sun Exposure
  WindExposed,                            !- Wind Exposure
  ,                                       !- View Factor to Ground
  ,                                       !- Number of Vertices
  0, 15.24, 3.048,                        !- X,Y,Z Vertex 1 {m}
  0, 15.24, 0,                            !- X,Y,Z Vertex 2 {m}
  0, 0, 0,                                !- X,Y,Z Vertex 3 {m}
  0, 0, 3.048;                            !- X,Y,Z Vertex 4 {m}

OS:Surface,
  {0efd8420-4dce-48e3-98c5-07aec66be477}, !- Handle
  Surface 3,                              !- Name
  Wall,                                   !- Surface Type
  ,                                       !- Construction Name
  {f6e3d8e5-5671-4b2d-b94d-e5e1844a5e1e}, !- Space Name
  Surface,                                !- Outside Boundary Condition
  {234829f6-09ea-41a6-97b0-ea7527abd2b4}, !- Outside Boundary Condition Object
  NoSun,                                  !- Sun Exposure
  NoWind,                                 !- Wind Exposure
  ,                                       !- View Factor to Ground
  ,                                       !- Number of Vertices
  4.57, 10.67, 3.048,                     !- X,Y,Z Vertex 1 {m}
  4.57, 10.67, 0,                         !- X,Y,Z Vertex 2 {m}
  0, 15.24, 0,                            !- X,Y,Z Vertex 3 {m}
  0, 15.24, 3.048;                        !- X,Y,Z Vertex 4 {m}

OS:Surface,
  {7b21f143-249c-49ce-8460-e8ed1f879598}, !- Handle
  Surface 4,                              !- Name
  Wall,                                   !- Surface Type
  ,                                       !- Construction Name
  {f6e3d8e5-5671-4b2d-b94d-e5e1844a5e1e}, !- Space Name
  Surface,                                !- Outside Boundary Condition
  {80d660d2-f3a2-4209-a7ea-abad8eb48c67}, !- Outside Boundary Condition Object
  NoSun,                                  !- Sun Exposure
  NoWind,                                 !- Wind Exposure
  ,                                       !- View Factor to Ground
  ,                                       !- Number of Vertices
  4.57, 4.57, 3.048,                      !- X,Y,Z Vertex 1 {m}
  4.57, 4.57, 0,                          !- X,Y,Z Vertex 2 {m}
  4.57, 10.67, 0,                         !- X,Y,Z Vertex 3 {m}
  4.57, 10.67, 3.048;                     !- X,Y,Z Vertex 4 {m}

OS:Surface,
  {398d0f7b-7bdc-470b-93ce-11b1a082166e}, !- Handle
  Surface 5,                              !- Name
  Wall,                                   !- Surface Type
  ,                                       !- Construction Name
  {f6e3d8e5-5671-4b2d-b94d-e5e1844a5e1e}, !- Space Name
  Surface,                                !- Outside Boundary Condition
  {c43534aa-d693-4e2e-a7ee-8f007cde99be}, !- Outside Boundary Condition Object
  NoSun,                                  !- Sun Exposure
  NoWind,                                 !- Wind Exposure
  ,                                       !- View Factor to Ground
  ,                                       !- Number of Vertices
  0, 0, 3.048,                            !- X,Y,Z Vertex 1 {m}
  0, 0, 0,                                !- X,Y,Z Vertex 2 {m}
  4.57, 4.57, 0,                          !- X,Y,Z Vertex 3 {m}
  4.57, 4.57, 3.048;                      !- X,Y,Z Vertex 4 {m}

OS:Surface,
  {25ed5d69-035a-47bd-9340-ebb482806b86}, !- Handle
  Surface 6,                              !- Name
  RoofCeiling,                            !- Surface Type
  ,                                       !- Construction Name
  {f6e3d8e5-5671-4b2d-b94d-e5e1844a5e1e}, !- Space Name
  Surface,                                !- Outside Boundary Condition
  {330c0a1b-f75b-4419-a483-2f8624a97122}, !- Outside Boundary Condition Object
  NoSun,                                  !- Sun Exposure
  NoWind,                                 !- Wind Exposure
  ,                                       !- View Factor to Ground
  ,                                       !- Number of Vertices
  4.57, 4.57, 3.048,                      !- X,Y,Z Vertex 1 {m}
  4.57, 10.67, 3.048,                     !- X,Y,Z Vertex 2 {m}
  0, 15.24, 3.048,                        !- X,Y,Z Vertex 3 {m}
  0, 0, 3.048;                            !- X,Y,Z Vertex 4 {m}

OS:Space,
  {57171dff-cff5-4878-b03d-df53b3fec083}, !- Handle
  Story 1 North Perimeter Space,          !- Name
  ,                                       !- Space Type Name
  ,                                       !- Default Construction Set Name
  ,                                       !- Default Schedule Set Name
  -0,                                     !- Direction of Relative North {deg}
  4.57,                                   !- X Origin {m}
  10.67,                                  !- Y Origin {m}
  0,                                      !- Z Origin {m}
  {518e4ebe-3388-4297-a55e-21adc48e3ba1}, !- Building Story Name
  {5277bf4b-c3f5-4bd6-a71e-5ed4bceae071}; !- Thermal Zone Name

OS:Surface,
  {f51e6a05-f2f1-46a5-b2aa-083c643b224a}, !- Handle
  Surface 7,                              !- Name
  Floor,                                  !- Surface Type
  ,                                       !- Construction Name
  {57171dff-cff5-4878-b03d-df53b3fec083}, !- Space Name
  Ground,                                 !- Outside Boundary Condition
  ,                                       !- Outside Boundary Condition Object
  NoSun,                                  !- Sun Exposure
  NoWind,                                 !- Wind Exposure
  ,                                       !- View Factor to Ground
  ,                                       !- Number of Vertices
  -4.57, 4.57, 0,                         !- X,Y,Z Vertex 1 {m}
  25.91, 4.57, 0,                         !- X,Y,Z Vertex 2 {m}
  21.34, 0, 0,                            !- X,Y,Z Vertex 3 {m}
  0, 0, 0;                                !- X,Y,Z Vertex 4 {m}

OS:Surface,
  {2bf51243-fbb1-47b7-ad5f-d36a9193b328}, !- Handle
  Surface 8,                              !- Name
  Wall,                                   !- Surface Type
  ,                                       !- Construction Name
  {57171dff-cff5-4878-b03d-df53b3fec083}, !- Space Name
  Outdoors,                               !- Outside Boundary Condition
  ,                                       !- Outside Boundary Condition Object
  SunExposed,                             !- Sun Exposure
  WindExposed,                            !- Wind Exposure
  ,                                       !- View Factor to Ground
  ,                                       !- Number of Vertices
  25.91, 4.57, 3.048,                     !- X,Y,Z Vertex 1 {m}
  25.91, 4.57, 0,                         !- X,Y,Z Vertex 2 {m}
  -4.57, 4.57, 0,                         !- X,Y,Z Vertex 3 {m}
  -4.57, 4.57, 3.048;                     !- X,Y,Z Vertex 4 {m}

OS:Surface,
  {f135687d-bcd0-42ca-90fc-4ccf5486621f}, !- Handle
  Surface 9,                              !- Name
  Wall,                                   !- Surface Type
  ,                                       !- Construction Name
  {57171dff-cff5-4878-b03d-df53b3fec083}, !- Space Name
  Surface,                                !- Outside Boundary Condition
  {524fe8dc-c35a-4d90-bc43-5e8345a61612}, !- Outside Boundary Condition Object
  NoSun,                                  !- Sun Exposure
  NoWind,                                 !- Wind Exposure
  ,                                       !- View Factor to Ground
  ,                                       !- Number of Vertices
  21.34, 0, 3.048,                        !- X,Y,Z Vertex 1 {m}
  21.34, 0, 0,                            !- X,Y,Z Vertex 2 {m}
  25.91, 4.57, 0,                         !- X,Y,Z Vertex 3 {m}
  25.91, 4.57, 3.048;                     !- X,Y,Z Vertex 4 {m}

OS:Surface,
  {02f0aa64-05bc-4d59-8abc-12f555e01e44}, !- Handle
  Surface 10,                             !- Name
  Wall,                                   !- Surface Type
  ,                                       !- Construction Name
  {57171dff-cff5-4878-b03d-df53b3fec083}, !- Space Name
  Surface,                                !- Outside Boundary Condition
  {4d333357-e8f2-4945-b44d-0824595e90a6}, !- Outside Boundary Condition Object
  NoSun,                                  !- Sun Exposure
  NoWind,                                 !- Wind Exposure
  ,                                       !- View Factor to Ground
  ,                                       !- Number of Vertices
  0, 0, 3.048,                            !- X,Y,Z Vertex 1 {m}
  0, 0, 0,                                !- X,Y,Z Vertex 2 {m}
  21.34, 0, 0,                            !- X,Y,Z Vertex 3 {m}
  21.34, 0, 3.048;                        !- X,Y,Z Vertex 4 {m}

OS:Surface,
  {234829f6-09ea-41a6-97b0-ea7527abd2b4}, !- Handle
  Surface 11,                             !- Name
  Wall,                                   !- Surface Type
  ,                                       !- Construction Name
  {57171dff-cff5-4878-b03d-df53b3fec083}, !- Space Name
  Surface,                                !- Outside Boundary Condition
  {0efd8420-4dce-48e3-98c5-07aec66be477}, !- Outside Boundary Condition Object
  NoSun,                                  !- Sun Exposure
  NoWind,                                 !- Wind Exposure
  ,                                       !- View Factor to Ground
  ,                                       !- Number of Vertices
  -4.57, 4.57, 3.048,                     !- X,Y,Z Vertex 1 {m}
  -4.57, 4.57, 0,                         !- X,Y,Z Vertex 2 {m}
  0, 0, 0,                                !- X,Y,Z Vertex 3 {m}
  0, 0, 3.048;                            !- X,Y,Z Vertex 4 {m}

OS:Surface,
  {21cca613-8e06-470c-8d98-3c840e0b5ccd}, !- Handle
  Surface 12,                             !- Name
  RoofCeiling,                            !- Surface Type
  ,                                       !- Construction Name
  {57171dff-cff5-4878-b03d-df53b3fec083}, !- Space Name
  Surface,                                !- Outside Boundary Condition
  {28218877-8a19-4bd0-a17f-9ebd3f772e88}, !- Outside Boundary Condition Object
  NoSun,                                  !- Sun Exposure
  NoWind,                                 !- Wind Exposure
  ,                                       !- View Factor to Ground
  ,                                       !- Number of Vertices
  0, 0, 3.048,                            !- X,Y,Z Vertex 1 {m}
  21.34, 0, 3.048,                        !- X,Y,Z Vertex 2 {m}
  25.91, 4.57, 3.048,                     !- X,Y,Z Vertex 3 {m}
  -4.57, 4.57, 3.048;                     !- X,Y,Z Vertex 4 {m}

OS:Space,
  {8eac6f19-1844-4f04-8d9f-ec5a87d6ab9e}, !- Handle
  Story 1 East Perimeter Space,           !- Name
  ,                                       !- Space Type Name
  ,                                       !- Default Construction Set Name
  ,                                       !- Default Schedule Set Name
  -0,                                     !- Direction of Relative North {deg}
  25.91,                                  !- X Origin {m}
  4.57,                                   !- Y Origin {m}
  0,                                      !- Z Origin {m}
  {518e4ebe-3388-4297-a55e-21adc48e3ba1}, !- Building Story Name
  {c328ca7d-e3a8-48ac-9edc-d87739a98ce0}; !- Thermal Zone Name

OS:Surface,
  {20fc7010-196c-4ff5-8227-a8db6bd522a3}, !- Handle
  Surface 13,                             !- Name
  Floor,                                  !- Surface Type
  ,                                       !- Construction Name
  {8eac6f19-1844-4f04-8d9f-ec5a87d6ab9e}, !- Space Name
  Ground,                                 !- Outside Boundary Condition
  ,                                       !- Outside Boundary Condition Object
  NoSun,                                  !- Sun Exposure
  NoWind,                                 !- Wind Exposure
  ,                                       !- View Factor to Ground
  ,                                       !- Number of Vertices
  4.57, 10.67, 0,                         !- X,Y,Z Vertex 1 {m}
  4.57, -4.57, 0,                         !- X,Y,Z Vertex 2 {m}
  -3.5527136788005e-015, 0, 0,            !- X,Y,Z Vertex 3 {m}
  -3.5527136788005e-015, 6.1, 0;          !- X,Y,Z Vertex 4 {m}

OS:Surface,
  {41bfa8eb-3738-4c4f-936e-5995eb9664f9}, !- Handle
  Surface 14,                             !- Name
  Wall,                                   !- Surface Type
  ,                                       !- Construction Name
  {8eac6f19-1844-4f04-8d9f-ec5a87d6ab9e}, !- Space Name
  Outdoors,                               !- Outside Boundary Condition
  ,                                       !- Outside Boundary Condition Object
  SunExposed,                             !- Sun Exposure
  WindExposed,                            !- Wind Exposure
  ,                                       !- View Factor to Ground
  ,                                       !- Number of Vertices
  4.57, -4.57, 3.048,                     !- X,Y,Z Vertex 1 {m}
  4.57, -4.57, 0,                         !- X,Y,Z Vertex 2 {m}
  4.57, 10.67, 0,                         !- X,Y,Z Vertex 3 {m}
  4.57, 10.67, 3.048;                     !- X,Y,Z Vertex 4 {m}

OS:Surface,
  {825cb34a-cc00-41e6-ae0c-737c9ef1b225}, !- Handle
  Surface 15,                             !- Name
  Wall,                                   !- Surface Type
  ,                                       !- Construction Name
  {8eac6f19-1844-4f04-8d9f-ec5a87d6ab9e}, !- Space Name
  Surface,                                !- Outside Boundary Condition
  {a0a919d7-4a04-4140-baa4-1fa020ad12f3}, !- Outside Boundary Condition Object
  NoSun,                                  !- Sun Exposure
  NoWind,                                 !- Wind Exposure
  ,                                       !- View Factor to Ground
  ,                                       !- Number of Vertices
  -3.5527136788005e-015, 0, 3.048,        !- X,Y,Z Vertex 1 {m}
  -3.5527136788005e-015, 0, 0,            !- X,Y,Z Vertex 2 {m}
  4.57, -4.57, 0,                         !- X,Y,Z Vertex 3 {m}
  4.57, -4.57, 3.048;                     !- X,Y,Z Vertex 4 {m}

OS:Surface,
  {517b0c93-f0c7-46e2-bdae-4c7d12d3bcab}, !- Handle
  Surface 16,                             !- Name
  Wall,                                   !- Surface Type
  ,                                       !- Construction Name
  {8eac6f19-1844-4f04-8d9f-ec5a87d6ab9e}, !- Space Name
  Surface,                                !- Outside Boundary Condition
  {4a0c2f24-2383-4735-a4c8-790c30d3849a}, !- Outside Boundary Condition Object
  NoSun,                                  !- Sun Exposure
  NoWind,                                 !- Wind Exposure
  ,                                       !- View Factor to Ground
  ,                                       !- Number of Vertices
  -3.5527136788005e-015, 6.1, 3.048,      !- X,Y,Z Vertex 1 {m}
  -3.5527136788005e-015, 6.1, 0,          !- X,Y,Z Vertex 2 {m}
  -3.5527136788005e-015, 0, 0,            !- X,Y,Z Vertex 3 {m}
  -3.5527136788005e-015, 0, 3.048;        !- X,Y,Z Vertex 4 {m}

OS:Surface,
  {524fe8dc-c35a-4d90-bc43-5e8345a61612}, !- Handle
  Surface 17,                             !- Name
  Wall,                                   !- Surface Type
  ,                                       !- Construction Name
  {8eac6f19-1844-4f04-8d9f-ec5a87d6ab9e}, !- Space Name
  Surface,                                !- Outside Boundary Condition
  {f135687d-bcd0-42ca-90fc-4ccf5486621f}, !- Outside Boundary Condition Object
  NoSun,                                  !- Sun Exposure
  NoWind,                                 !- Wind Exposure
  ,                                       !- View Factor to Ground
  ,                                       !- Number of Vertices
  4.57, 10.67, 3.048,                     !- X,Y,Z Vertex 1 {m}
  4.57, 10.67, 0,                         !- X,Y,Z Vertex 2 {m}
  -3.5527136788005e-015, 6.1, 0,          !- X,Y,Z Vertex 3 {m}
  -3.5527136788005e-015, 6.1, 3.048;      !- X,Y,Z Vertex 4 {m}

OS:Surface,
  {483fbd16-6c99-4bd4-8df6-e4f04870a477}, !- Handle
  Surface 18,                             !- Name
  RoofCeiling,                            !- Surface Type
  ,                                       !- Construction Name
  {8eac6f19-1844-4f04-8d9f-ec5a87d6ab9e}, !- Space Name
  Surface,                                !- Outside Boundary Condition
  {97c6100e-e5b5-4440-869a-f67f5089ce26}, !- Outside Boundary Condition Object
  NoSun,                                  !- Sun Exposure
  NoWind,                                 !- Wind Exposure
  ,                                       !- View Factor to Ground
  ,                                       !- Number of Vertices
  -3.5527136788005e-015, 6.1, 3.048,      !- X,Y,Z Vertex 1 {m}
  -3.5527136788005e-015, 0, 3.048,        !- X,Y,Z Vertex 2 {m}
  4.57, -4.57, 3.048,                     !- X,Y,Z Vertex 3 {m}
  4.57, 10.67, 3.048;                     !- X,Y,Z Vertex 4 {m}

OS:Space,
  {fe0aaada-52e4-44eb-9f55-ce9f85fdeab2}, !- Handle
  Story 1 South Perimeter Space,          !- Name
  ,                                       !- Space Type Name
  ,                                       !- Default Construction Set Name
  ,                                       !- Default Schedule Set Name
  -0,                                     !- Direction of Relative North {deg}
  0,                                      !- X Origin {m}
  0,                                      !- Y Origin {m}
  0,                                      !- Z Origin {m}
  {518e4ebe-3388-4297-a55e-21adc48e3ba1}, !- Building Story Name
  {d795adde-0cd0-424d-942f-798914d59e11}; !- Thermal Zone Name

OS:Surface,
  {059f22ce-3a84-45b1-adbe-a15708cb4bb8}, !- Handle
  Surface 19,                             !- Name
  Floor,                                  !- Surface Type
  ,                                       !- Construction Name
  {fe0aaada-52e4-44eb-9f55-ce9f85fdeab2}, !- Space Name
  Ground,                                 !- Outside Boundary Condition
  ,                                       !- Outside Boundary Condition Object
  NoSun,                                  !- Sun Exposure
  NoWind,                                 !- Wind Exposure
  ,                                       !- View Factor to Ground
  ,                                       !- Number of Vertices
  30.48, 0, 0,                            !- X,Y,Z Vertex 1 {m}
  0, 0, 0,                                !- X,Y,Z Vertex 2 {m}
  4.57, 4.57, 0,                          !- X,Y,Z Vertex 3 {m}
  25.91, 4.57, 0;                         !- X,Y,Z Vertex 4 {m}

OS:Surface,
  {ce718b02-15e3-44f2-93b0-149b82f4cd1d}, !- Handle
  Surface 20,                             !- Name
  Wall,                                   !- Surface Type
  ,                                       !- Construction Name
  {fe0aaada-52e4-44eb-9f55-ce9f85fdeab2}, !- Space Name
  Outdoors,                               !- Outside Boundary Condition
  ,                                       !- Outside Boundary Condition Object
  SunExposed,                             !- Sun Exposure
  WindExposed,                            !- Wind Exposure
  ,                                       !- View Factor to Ground
  ,                                       !- Number of Vertices
  0, 0, 3.048,                            !- X,Y,Z Vertex 1 {m}
  0, 0, 0,                                !- X,Y,Z Vertex 2 {m}
  30.48, 0, 0,                            !- X,Y,Z Vertex 3 {m}
  30.48, 0, 3.048;                        !- X,Y,Z Vertex 4 {m}

OS:Surface,
  {c43534aa-d693-4e2e-a7ee-8f007cde99be}, !- Handle
  Surface 21,                             !- Name
  Wall,                                   !- Surface Type
  ,                                       !- Construction Name
  {fe0aaada-52e4-44eb-9f55-ce9f85fdeab2}, !- Space Name
  Surface,                                !- Outside Boundary Condition
  {398d0f7b-7bdc-470b-93ce-11b1a082166e}, !- Outside Boundary Condition Object
  NoSun,                                  !- Sun Exposure
  NoWind,                                 !- Wind Exposure
  ,                                       !- View Factor to Ground
  ,                                       !- Number of Vertices
  4.57, 4.57, 3.048,                      !- X,Y,Z Vertex 1 {m}
  4.57, 4.57, 0,                          !- X,Y,Z Vertex 2 {m}
  0, 0, 0,                                !- X,Y,Z Vertex 3 {m}
  0, 0, 3.048;                            !- X,Y,Z Vertex 4 {m}

OS:Surface,
  {e226f35f-69ff-483b-a635-de839140298d}, !- Handle
  Surface 22,                             !- Name
  Wall,                                   !- Surface Type
  ,                                       !- Construction Name
  {fe0aaada-52e4-44eb-9f55-ce9f85fdeab2}, !- Space Name
  Surface,                                !- Outside Boundary Condition
  {2b5e95fd-57c7-4095-b2b1-1be7d89adab4}, !- Outside Boundary Condition Object
  NoSun,                                  !- Sun Exposure
  NoWind,                                 !- Wind Exposure
  ,                                       !- View Factor to Ground
  ,                                       !- Number of Vertices
  25.91, 4.57, 3.048,                     !- X,Y,Z Vertex 1 {m}
  25.91, 4.57, 0,                         !- X,Y,Z Vertex 2 {m}
  4.57, 4.57, 0,                          !- X,Y,Z Vertex 3 {m}
  4.57, 4.57, 3.048;                      !- X,Y,Z Vertex 4 {m}

OS:Surface,
  {a0a919d7-4a04-4140-baa4-1fa020ad12f3}, !- Handle
  Surface 23,                             !- Name
  Wall,                                   !- Surface Type
  ,                                       !- Construction Name
  {fe0aaada-52e4-44eb-9f55-ce9f85fdeab2}, !- Space Name
  Surface,                                !- Outside Boundary Condition
  {825cb34a-cc00-41e6-ae0c-737c9ef1b225}, !- Outside Boundary Condition Object
  NoSun,                                  !- Sun Exposure
  NoWind,                                 !- Wind Exposure
  ,                                       !- View Factor to Ground
  ,                                       !- Number of Vertices
  30.48, 0, 3.048,                        !- X,Y,Z Vertex 1 {m}
  30.48, 0, 0,                            !- X,Y,Z Vertex 2 {m}
  25.91, 4.57, 0,                         !- X,Y,Z Vertex 3 {m}
  25.91, 4.57, 3.048;                     !- X,Y,Z Vertex 4 {m}

OS:Surface,
  {7b9a589a-7ef8-4d32-8f48-630da4bcf8ee}, !- Handle
  Surface 24,                             !- Name
  RoofCeiling,                            !- Surface Type
  ,                                       !- Construction Name
  {fe0aaada-52e4-44eb-9f55-ce9f85fdeab2}, !- Space Name
  Surface,                                !- Outside Boundary Condition
  {ae755cf3-b1a5-410a-904e-92cc32a1f150}, !- Outside Boundary Condition Object
  NoSun,                                  !- Sun Exposure
  NoWind,                                 !- Wind Exposure
  ,                                       !- View Factor to Ground
  ,                                       !- Number of Vertices
  25.91, 4.57, 3.048,                     !- X,Y,Z Vertex 1 {m}
  4.57, 4.57, 3.048,                      !- X,Y,Z Vertex 2 {m}
  0, 0, 3.048,                            !- X,Y,Z Vertex 3 {m}
  30.48, 0, 3.048;                        !- X,Y,Z Vertex 4 {m}

OS:Space,
  {93e07bc1-56fa-4c96-b3a4-a4d537c922c4}, !- Handle
  Story 1 Core Space,                     !- Name
  ,                                       !- Space Type Name
  ,                                       !- Default Construction Set Name
  ,                                       !- Default Schedule Set Name
  -0,                                     !- Direction of Relative North {deg}
  4.57,                                   !- X Origin {m}
  4.57,                                   !- Y Origin {m}
  0,                                      !- Z Origin {m}
  {518e4ebe-3388-4297-a55e-21adc48e3ba1}, !- Building Story Name
  {fdd38a3e-9975-4044-865f-41fe78730528}; !- Thermal Zone Name

OS:Surface,
  {7bd13aa2-ce02-43d0-ada8-f6a3224c6362}, !- Handle
  Surface 25,                             !- Name
  Floor,                                  !- Surface Type
  ,                                       !- Construction Name
  {93e07bc1-56fa-4c96-b3a4-a4d537c922c4}, !- Space Name
  Ground,                                 !- Outside Boundary Condition
  ,                                       !- Outside Boundary Condition Object
  NoSun,                                  !- Sun Exposure
  NoWind,                                 !- Wind Exposure
  ,                                       !- View Factor to Ground
  ,                                       !- Number of Vertices
  0, 0, 0,                                !- X,Y,Z Vertex 1 {m}
  0, 6.1, 0,                              !- X,Y,Z Vertex 2 {m}
  21.34, 6.1, 0,                          !- X,Y,Z Vertex 3 {m}
  21.34, 0, 0;                            !- X,Y,Z Vertex 4 {m}

OS:Surface,
  {80d660d2-f3a2-4209-a7ea-abad8eb48c67}, !- Handle
  Surface 26,                             !- Name
  Wall,                                   !- Surface Type
  ,                                       !- Construction Name
  {93e07bc1-56fa-4c96-b3a4-a4d537c922c4}, !- Space Name
  Surface,                                !- Outside Boundary Condition
  {7b21f143-249c-49ce-8460-e8ed1f879598}, !- Outside Boundary Condition Object
  NoSun,                                  !- Sun Exposure
  NoWind,                                 !- Wind Exposure
  ,                                       !- View Factor to Ground
  ,                                       !- Number of Vertices
  0, 6.1, 3.048,                          !- X,Y,Z Vertex 1 {m}
  0, 6.1, 0,                              !- X,Y,Z Vertex 2 {m}
  0, 0, 0,                                !- X,Y,Z Vertex 3 {m}
  0, 0, 3.048;                            !- X,Y,Z Vertex 4 {m}

OS:Surface,
  {4d333357-e8f2-4945-b44d-0824595e90a6}, !- Handle
  Surface 27,                             !- Name
  Wall,                                   !- Surface Type
  ,                                       !- Construction Name
  {93e07bc1-56fa-4c96-b3a4-a4d537c922c4}, !- Space Name
  Surface,                                !- Outside Boundary Condition
  {02f0aa64-05bc-4d59-8abc-12f555e01e44}, !- Outside Boundary Condition Object
  NoSun,                                  !- Sun Exposure
  NoWind,                                 !- Wind Exposure
  ,                                       !- View Factor to Ground
  ,                                       !- Number of Vertices
  21.34, 6.1, 3.048,                      !- X,Y,Z Vertex 1 {m}
  21.34, 6.1, 0,                          !- X,Y,Z Vertex 2 {m}
  0, 6.1, 0,                              !- X,Y,Z Vertex 3 {m}
  0, 6.1, 3.048;                          !- X,Y,Z Vertex 4 {m}

OS:Surface,
  {4a0c2f24-2383-4735-a4c8-790c30d3849a}, !- Handle
  Surface 28,                             !- Name
  Wall,                                   !- Surface Type
  ,                                       !- Construction Name
  {93e07bc1-56fa-4c96-b3a4-a4d537c922c4}, !- Space Name