
OS:Version,
  {41540664-8d00-4a85-a8e7-c26369b62603}, !- Handle
  1.6.0;                                  !- Version Identifier

OS:Space,
  {6a1d83bd-1895-442e-97d3-a52b3611e14e}, !- Handle
  Corner_Class_2_Pod_3_ZN_1_FLR_2,        !- Name
  ,                                       !- Space Type Name
  ,                                       !- Default Construction Set Name
  ,                                       !- Default Schedule Set Name
  0,                                      !- Direction of Relative North {deg}
  0,                                      !- X Origin {m}
  95,                                     !- Y Origin {m}
  4,                                      !- Z Origin {m}
  ,                                       !- Building Story Name
  ,                                       !- Thermal Zone Name
  Yes,                                    !- Part of Total Floor Area
  {95c0e8a4-0c79-4293-b74c-5b944624a44f}; !- Design Specification Outdoor Air Object Name

OS:DesignSpecification:OutdoorAir,
  {95c0e8a4-0c79-4293-b74c-5b944624a44f}, !- Handle
  SZ DSOA Corner_Class_2_Pod_3_ZN_1_FLR_2, !- Name
  ,                                       !- Outdoor Air Method
  0.008,                                  !- Outdoor Air Flow per Person {m3/s-person}
  ,                                       !- Outdoor Air Flow per Floor Area {m3/s-m2}
  ,                                       !- Outdoor Air Flow Rate {m3/s}
  ,                                       !- Outdoor Air Flow Air Changes per Hour {1/hr}
  ;                                       !- Outdoor Air Flow Rate Fraction Schedule Name

OS:Surface,
  {48db45fd-e288-4182-8bdb-7b800c7037f8}, !- Handle
  Corner_Class_2_Pod_3_ZN_1_FLR_2_Wall_4, !- Name
  Wall,                                   !- Surface Type
  {2cdd4ac1-df68-4482-bf8c-d4eacb83e029}, !- Construction Name
  {6a1d83bd-1895-442e-97d3-a52b3611e14e}, !- Space Name
  Outdoors,                               !- Outside Boundary Condition
  ,                                       !- Outside Boundary Condition Object
  SunExposed,                             !- Sun Exposure
  WindExposed,                            !- Wind Exposure
  ,                                       !- View Factor to Ground
  ,                                       !- Number of Vertices
  0, 9, 4,                                !- X,Y,Z Vertex 1 {m}
  0, 9, 0,                                !- X,Y,Z Vertex 2 {m}
  0, 0, 0,                                !- X,Y,Z Vertex 3 {m}
  0, 0, 4;                                !- X,Y,Z Vertex 4 {m}

OS:Construction,
  {2cdd4ac1-df68-4482-bf8c-d4eacb83e029}, !- Handle
  Steel Frame Non-res Ext Wall,           !- Name
  {fa418562-6543-47b0-9eca-f17cbeb59690}, !- Surface Rendering Name
  {ede12086-6f50-4a40-8d32-b9a364dc2d1f}, !- Layer 1
  {53617d9c-0f5a-456c-8964-31440e9fe85f}, !- Layer 2
  {a3932aa1-b848-43ee-b521-ecda68bc949c}; !- Layer 3

OS:Rendering:Color,
  {fa418562-6543-47b0-9eca-f17cbeb59690}, !- Handle
  Rendering Color 6,                      !- Name
  220,                                    !- Rendering Red Value
  220,                                    !- Rendering Green Value
  220;                                    !- Rendering Blue Value

OS:Material,
  {ede12086-6f50-4a40-8d32-b9a364dc2d1f}, !- Handle
  Wood Siding,                            !- Name
  MediumSmooth,                           !- Roughness
  0.01,                                   !- Thickness {m}
  0.11,                                   !- Conductivity {W/m-K}
  544.62,                                 !- Density {kg/m3}
  1210,                                   !- Specific Heat {J/kg-K}
  0.9,                                    !- Thermal Absorptance
  0.78,                                   !- Solar Absorptance
  0.78;                                   !- Visible Absorptance

OS:Material,
  {53617d9c-0f5a-456c-8964-31440e9fe85f}, !- Handle
  Steel Frame NonRes Wall Insulation,     !- Name
  MediumRough,                            !- Roughness
  0.0870564552646045,                     !- Thickness {m}
  0.049,                                  !- Conductivity {W/m-K}
  265,                                    !- Density {kg/m3}
  836.8,                                  !- Specific Heat {J/kg-K}
  0.9,                                    !- Thermal Absorptance
  0.7,                                    !- Solar Absorptance
  0.7;                                    !- Visible Absorptance

OS:Material,
  {a3932aa1-b848-43ee-b521-ecda68bc949c}, !- Handle
  1/2IN Gypsum,                           !- Name
  Smooth,                                 !- Roughness
  0.0127,                                 !- Thickness {m}
  0.16,                                   !- Conductivity {W/m-K}
  784.9,                                  !- Density {kg/m3}
  830,                                    !- Specific Heat {J/kg-K}
  0.9,                                    !- Thermal Absorptance
  0.92,                                   !- Solar Absorptance
  0.92;                                   !- Visible Absorptance

OS:SubSurface,
  {670ecdec-7497-47e6-ae04-030eee7833f4}, !- Handle
  Corner_Class_2_Pod_3_ZN_1_FLR_2_Wall_4_window_1, !- Name
  FixedWindow,                            !- Sub Surface Type
  {4f48476e-959f-487b-b9ec-c2a5949c66bf}, !- Construction Name
  {48db45fd-e288-4182-8bdb-7b800c7037f8}, !- Surface Name
  ,                                       !- Outside Boundary Condition Object
  ,                                       !- View Factor to Ground
  ,                                       !- Shading Control Name
  ,                                       !- Frame and Divider Name
  1,                                      !- Multiplier
  ,                                       !- Number of Vertices
  0, 8.95, 2.5157,                        !- X,Y,Z Vertex 1 {m}
  0, 8.95, 1.1,                           !- X,Y,Z Vertex 2 {m}
  0, 0.05, 1.1,                           !- X,Y,Z Vertex 3 {m}
  0, 0.05, 2.5157;                        !- X,Y,Z Vertex 4 {m}

OS:Construction,
  {4f48476e-959f-487b-b9ec-c2a5949c66bf}, !- Handle
  Window Non-res Fixed,                   !- Name
  {6b3ccd18-f372-4a67-8f1a-a667ca0efba4}, !- Surface Rendering Name
  {0088d910-a087-45da-bfba-f76278f4e3e5}; !- Layer 1

OS:Rendering:Color,
  {6b3ccd18-f372-4a67-8f1a-a667ca0efba4}, !- Handle
  Rendering Color 3,                      !- Name
  138,                                    !- Rendering Red Value
  43,                                     !- Rendering Green Value
  226;                                    !- Rendering Blue Value

OS:WindowMaterial:SimpleGlazingSystem,
  {0088d910-a087-45da-bfba-f76278f4e3e5}, !- Handle
  NonRes Fixed Assembly Window,           !- Name
  3.23646,                                !- U-Factor {W/m2-K}
  0.39;                                   !- Solar Heat Gain Coefficient

OS:Surface,
  {b19bdf70-2df5-4b47-a21d-815afbd9ba78}, !- Handle
  Corner_Class_2_Pod_3_ZN_1_FLR_2_Ceiling, !- Name
  RoofCeiling,                            !- Surface Type
  {a24f00d4-6de8-4cc3-ad08-115f9260a44e}, !- Construction Name
  {6a1d83bd-1895-442e-97d3-a52b3611e14e}, !- Space Name
  Outdoors,                               !- Outside Boundary Condition
  ,                                       !- Outside Boundary Condition Object
  SunExposed,                             !- Sun Exposure
  WindExposed,                            !- Wind Exposure
  ,                                       !- View Factor to Ground
  ,                                       !- Number of Vertices
  11, 0, 4,                               !- X,Y,Z Vertex 1 {m}
  11, 9, 4,                               !- X,Y,Z Vertex 2 {m}
  0, 9, 4,                                !- X,Y,Z Vertex 3 {m}
  0, 0, 4;                                !- X,Y,Z Vertex 4 {m}

OS:Construction,
  {a24f00d4-6de8-4cc3-ad08-115f9260a44e}, !- Handle
  IEAD Non-res Roof,                      !- Name
  {b8925aeb-002b-4e35-96ed-41ca68517476}, !- Surface Rendering Name
  {b0ab0560-cb3c-4485-a2fc-9bd1560c92aa}, !- Layer 1
  {bfabfff0-19d7-49e3-a93e-52db0382fa19}, !- Layer 2
  {5038d9b7-9fa8-44cf-ae47-3a9023596d16}; !- Layer 3

OS:Rendering:Color,
  {b8925aeb-002b-4e35-96ed-41ca68517476}, !- Handle
  Rendering Color 8,                      !- Name
  210,                                    !- Rendering Red Value
  180,                                    !- Rendering Green Value
  140;                                    !- Rendering Blue Value

OS:Material,
  {b0ab0560-cb3c-4485-a2fc-9bd1560c92aa}, !- Handle
  Roof Membrane,                          !- Name
  VeryRough,                              !- Roughness
  0.0095,                                 !- Thickness {m}
  0.16,                                   !- Conductivity {W/m-K}
  1121.29,                                !- Density {kg/m3}
  1460,                                   !- Specific Heat {J/kg-K}
  0.9,                                    !- Thermal Absorptance
  0.7,                                    !- Solar Absorptance
  0.7;                                    !- Visible Absorptance

OS:Material,
  {bfabfff0-19d7-49e3-a93e-52db0382fa19}, !- Handle
  IEAD NonRes Roof Insulation,            !- Name
  MediumRough,                            !- Roughness
  0.127338688569477,                      !- Thickness {m}
  0.049,                                  !- Conductivity {W/m-K}
  265,                                    !- Density {kg/m3}
  836.8,                                  !- Specific Heat {J/kg-K}
  0.9,                                    !- Thermal Absorptance
  0.7,                                    !- Solar Absorptance
  0.7;                                    !- Visible Absorptance

OS:Material,
  {5038d9b7-9fa8-44cf-ae47-3a9023596d16}, !- Handle
  Metal Decking,                          !- Name
  MediumSmooth,                           !- Roughness
  0.0015,                                 !- Thickness {m}
  45.006,                                 !- Conductivity {W/m-K}
  7680,                                   !- Density {kg/m3}
  418.4,                                  !- Specific Heat {J/kg-K}
  0.9,                                    !- Thermal Absorptance
  0.7,                                    !- Solar Absorptance
  0.3;                                    !- Visible Absorptance

OS:Surface,
  {76cd8949-663a-4631-8196-174a7610b60b}, !- Handle
  Corner_Class_2_Pod_3_ZN_1_FLR_2_Floor,  !- Name
  Floor,                                  !- Surface Type
  {237bb457-c584-4bf9-acc3-711433cabf0d}, !- Construction Name
  {6a1d83bd-1895-442e-97d3-a52b3611e14e}, !- Space Name
  Surface,                                !- Outside Boundary Condition
  {3d5df6a3-d503-4546-9318-875f63a13da7}, !- Outside Boundary Condition Object
  NoSun,                                  !- Sun Exposure
  NoWind,                                 !- Wind Exposure
  ,                                       !- View Factor to Ground
  ,                                       !- Number of Vertices
  11, 9, 0,                               !- X,Y,Z Vertex 1 {m}
  11, 0, 0,                               !- X,Y,Z Vertex 2 {m}
  0, 0, 0,                                !- X,Y,Z Vertex 3 {m}
  0, 9, 0;                                !- X,Y,Z Vertex 4 {m}

OS:Construction,
  {237bb457-c584-4bf9-acc3-711433cabf0d}, !- Handle
  INT-FLOOR-TOPSIDE,                      !- Name
  {595444f9-6d01-48dc-809b-be51e6c80d04}, !- Surface Rendering Name
  {33733b9f-f572-43f4-9b7b-1d31f831163f}, !- Layer 1
  {0a4bf135-4d25-4c3c-9e71-fcd89a9607d0}; !- Layer 2

OS:Rendering:Color,
  {595444f9-6d01-48dc-809b-be51e6c80d04}, !- Handle
  Rendering Color 9,                      !- Name
  173,                                    !- Rendering Red Value
  216,                                    !- Rendering Green Value
  230;                                    !- Rendering Blue Value

OS:Material,
  {33733b9f-f572-43f4-9b7b-1d31f831163f}, !- Handle
  MAT-CC05 4 HW CONCRETE,                 !- Name
  Rough,                                  !- Roughness
  0.1016,                                 !- Thickness {m}
  1.311,                                  !- Conductivity {W/m-K}
  2240,                                   !- Density {kg/m3}
  836.8,                                  !- Specific Heat {J/kg-K}
  0.9,                                    !- Thermal Absorptance
  0.7,                                    !- Solar Absorptance
  0.7;                                    !- Visible Absorptance

OS:Material:NoMass,
  {0a4bf135-4d25-4c3c-9e71-fcd89a9607d0}, !- Handle
  CP02 CARPET PAD,                        !- Name
  VeryRough,                              !- Roughness
  0.2165,                                 !- Thermal Resistance {m2-K/W}
  0.9,                                    !- Thermal Absorptance
  0.7,                                    !- Solar Absorptance
  0.8;                                    !- Visible Absorptance

OS:Surface,
  {5cacc47f-61ab-438e-957d-3422d2b68e1e}, !- Handle
  Corner_Class_2_Pod_3_ZN_1_FLR_2_Wall_1, !- Name
  Wall,                                   !- Surface Type
  {fee6143a-f549-4382-9ab1-fb01f92a9137}, !- Construction Name
  {6a1d83bd-1895-442e-97d3-a52b3611e14e}, !- Space Name
  Surface,                                !- Outside Boundary Condition
  {d6c68c4e-1916-4e97-9e1d-22a499d9e192}, !- Outside Boundary Condition Object
  NoSun,                                  !- Sun Exposure
  NoWind,                                 !- Wind Exposure
  ,                                       !- View Factor to Ground
  ,                                       !- Number of Vertices
  0, 0, 4,                                !- X,Y,Z Vertex 1 {m}
  0, 0, 0,                                !- X,Y,Z Vertex 2 {m}
  11, 0, 0,                               !- X,Y,Z Vertex 3 {m}
  11, 0, 4;                               !- X,Y,Z Vertex 4 {m}

OS:Construction,
  {fee6143a-f549-4382-9ab1-fb01f92a9137}, !- Handle
  int-walls,                              !- Name
  {20dde8a9-8d90-440a-bbb9-5b33b5d70a7f}, !- Surface Rendering Name
  {a3932aa1-b848-43ee-b521-ecda68bc949c}, !- Layer 1
  {a3932aa1-b848-43ee-b521-ecda68bc949c}; !- Layer 2

OS:Rendering:Color,
  {20dde8a9-8d90-440a-bbb9-5b33b5d70a7f}, !- Handle
  Rendering Color 5,                      !- Name
  245,                                    !- Rendering Red Value
  245,                                    !- Rendering Green Value
  220;                                    !- Rendering Blue Value

OS:Surface,
  {f2f9672e-df35-4efa-ae51-9a3a696a57c2}, !- Handle
  Corner_Class_2_Pod_3_ZN_1_FLR_2_Wall_3, !- Name
  Wall,                                   !- Surface Type
  {2cdd4ac1-df68-4482-bf8c-d4eacb83e029}, !- Construction Name
  {6a1d83bd-1895-442e-97d3-a52b3611e14e}, !- Space Name
  Outdoors,                               !- Outside Boundary Condition
  ,                                       !- Outside Boundary Condition Object
  SunExposed,                             !- Sun Exposure
  WindExposed,                            !- Wind Exposure
  ,                                       !- View Factor to Ground
  ,                                       !- Number of Vertices
  11, 9, 4,                               !- X,Y,Z Vertex 1 {m}
  11, 9, 0,                               !- X,Y,Z Vertex 2 {m}
  0, 9, 0,                                !- X,Y,Z Vertex 3 {m}
  0, 9, 4;                                !- X,Y,Z Vertex 4 {m}

OS:SubSurface,
  {c75a290e-37ed-4220-a5bf-e5ae8db4d8c3}, !- Handle
  Corner_Class_2_Pod_3_ZN_1_FLR_2_Wall_3_window_1, !- Name
  FixedWindow,                            !- Sub Surface Type
  {4f48476e-959f-487b-b9ec-c2a5949c66bf}, !- Construction Name
  {f2f9672e-df35-4efa-ae51-9a3a696a57c2}, !- Surface Name
  ,                                       !- Outside Boundary Condition Object
  ,                                       !- View Factor to Ground
  ,                                       !- Shading Control Name
  ,                                       !- Frame and Divider Name
  1,                                      !- Multiplier
  ,                                       !- Number of Vertices
  10.95, 9, 2.5128,                       !- X,Y,Z Vertex 1 {m}
  10.95, 9, 1.1,                          !- X,Y,Z Vertex 2 {m}
  0.05, 9, 1.1,                           !- X,Y,Z Vertex 3 {m}
  0.05, 9, 2.5128;                        !- X,Y,Z Vertex 4 {m}

OS:Surface,
  {533c3c4f-c568-4040-bb59-1e0ac74755ff}, !- Handle
  Corner_Class_2_Pod_3_ZN_1_FLR_2_Wall_2, !- Name
  Wall,                                   !- Surface Type
  {fee6143a-f549-4382-9ab1-fb01f92a9137}, !- Construction Name
  {6a1d83bd-1895-442e-97d3-a52b3611e14e}, !- Space Name
  Surface,                                !- Outside Boundary Condition
  {b1f6b36a-998b-447e-a60a-cdaeafab2f61}, !- Outside Boundary Condition Object
  NoSun,                                  !- Sun Exposure
  NoWind,                                 !- Wind Exposure
  ,                                       !- View Factor to Ground
  ,                                       !- Number of Vertices
  11, 0, 4,                               !- X,Y,Z Vertex 1 {m}
  11, 0, 0,                               !- X,Y,Z Vertex 2 {m}
  11, 9, 0,                               !- X,Y,Z Vertex 3 {m}
  11, 9, 4;                               !- X,Y,Z Vertex 4 {m}

OS:InternalMass,
  {9b464241-991f-4ae4-b13c-52bd7a729a95}, !- Handle
  Corner_Class_2_Pod_3_ZN_1_FLR_2 Internal Mass, !- Name
  {cd7b29aa-aa1c-47ea-9e26-6fb2907163bf}, !- Internal Mass Definition Name
  {6a1d83bd-1895-442e-97d3-a52b3611e14e}; !- Space or SpaceType Name

OS:InternalMass:Definition,
  {cd7b29aa-aa1c-47ea-9e26-6fb2907163bf}, !- Handle
  Corner_Class_2_Pod_3_ZN_1_FLR_2 Internal Mass Definition, !- Name
  {1092b846-3257-4c58-8e7d-044ce272fbd3}, !- Construction Name
  SurfaceArea,                            !- Design Level Calculation Method
  198,                                    !- Surface Area {m2}
  ,                                       !- Surface Area per Space Floor Area {dimensionless}
  ;                                       !- Surface Area per Person {m2/person}

OS:Construction,
  {1092b846-3257-4c58-8e7d-044ce272fbd3}, !- Handle
  InteriorFurnishings,                    !- Name
  {0e951cfb-95dc-4928-8a40-2918c7dfdd23}, !- Surface Rendering Name
  {76252e42-3fac-42e0-91ac-cd620ded0de9}; !- Layer 1

OS:Rendering:Color,
  {0e951cfb-95dc-4928-8a40-2918c7dfdd23}, !- Handle
  Rendering Color 10,                     !- Name
  0,                                      !- Rendering Red Value
  206,                                    !- Rendering Green Value
  209;                                    !- Rendering Blue Value

OS:Material,
  {76252e42-3fac-42e0-91ac-cd620ded0de9}, !- Handle
  Std Wood 6inch,                         !- Name
  MediumSmooth,                           !- Roughness
  0.15,                                   !- Thickness {m}
  0.12,                                   !- Conductivity {W/m-K}
  540,                                    !- Density {kg/m3}
  1210,                                   !- Specific Heat {J/kg-K}
  0.9,                                    !- Thermal Absorptance
  0.7,                                    !- Solar Absorptance
  0.7;                                    !- Visible Absorptance

OS:Lights,
  {90e7410b-4ba7-4f5c-9f16-f9c2389cb2a7}, !- Handle
  Corner_Class_2_Pod_3_ZN_1_FLR_2_Lights, !- Name
  {421e96c1-953c-4d87-9b74-e33525c8982d}, !- Lights Definition Name
  {6a1d83bd-1895-442e-97d3-a52b3611e14e}, !- Space or SpaceType Name
  {c059c161-f6e2-43e3-93a7-0421e4f4bb74}, !- Schedule Name
  1,                                      !- Fraction Replaceable
  ,                                       !- Multiplier
  General;                                !- End-Use Subcategory

OS:Lights:Definition,
  {421e96c1-953c-4d87-9b74-e33525c8982d}, !- Handle
  Corner_Class_2_Pod_3_ZN_1_FLR_2_Lights Definition, !- Name
  Watts/Area,                             !- Design Level Calculation Method
  ,                                       !- Lighting Level {W}
  15.06,                                  !- Watts per Space Floor Area {W/m2}
  ,                                       !- Watts per Person {W/person}
  0.37,                                   !- Fraction Radiant
  0.2,                                    !- Fraction Visible
  0,                                      !- Return Air Fraction
  No;                                     !- Return Air Fraction Calculated from Plenum Temperature

OS:Schedule:Compact,
  {c059c161-f6e2-43e3-93a7-0421e4f4bb74}, !- Handle
  BLDG_LIGHT_SCH,                         !- Name
  {ac1ced07-2c2b-4f73-bbf8-ebcd1c08e6d6}, !- Schedule Type Limits Name
  Through: 6/30,                          !- Field 1
  For: Weekdays SummerDesignDay,          !- Field 2
  Until: 07:00,                           !- Field 3
  0.1773,                                 !- Field 4
  Until: 21:00,                           !- Field 5
  0.9,                                    !- Field 6
  Until: 24:00,                           !- Field 7
  0.1773,                                 !- Field 8
  For: AllOtherDays,                      !- Field 9
  Until: 24:00,                           !- Field 10
  0.1773,                                 !- Field 11
  Through: 9/1,                           !- Field 12
  For: Weekdays SummerDesignDay,          !- Field 13
  Until: 08:00,                           !- Field 14
  0.1773,                                 !- Field 15
  Until: 20:00,                           !- Field 16
  0.5,                                    !- Field 17
  Until: 24:00,                           !- Field 18
  0.1773,                                 !- Field 19
  For: AllOtherDays,                      !- Field 20
  Until: 24:00,                           !- Field 21
  0.1773,                                 !- Field 22
  Through: 12/31,                         !- Field 23
  For: Weekdays SummerDesignDay,          !- Field 24
  Until: 07:00,                           !- Field 25
  0.1773,                                 !- Field 26
  Until: 21:00,                           !- Field 27
  0.9,                                    !- Field 28
  Until: 24:00,                           !- Field 29
  0.1773,                                 !- Field 30
  For: AllOtherDays,                      !- Field 31
  Until: 24:00,                           !- Field 32
  0.1773;                                 !- Field 33

OS:ScheduleTypeLimits,
  {ac1ced07-2c2b-4f73-bbf8-ebcd1c08e6d6}, !- Handle
  Fraction,                               !- Name
  0,                                      !- Lower Limit Value {BasedOnField A4}
  1,                                      !- Upper Limit Value {BasedOnField A4}
  CONTINUOUS;                             !- Numeric Type

OS:People,
  {f4d6fc15-00e6-4aa0-9ee9-2e97dca9cbc7}, !- Handle
  Corner_Class_2_Pod_3_ZN_1_FLR_2 People, !- Name
  {40ae475b-fd2f-4789-b72e-387b3085b43c}, !- People Definition Name
  {6a1d83bd-1895-442e-97d3-a52b3611e14e}, !- Space or SpaceType Name
  {e6a14218-073a-47ea-82a5-3b496f41bed5}, !- Number of People Schedule Name
  {4966819b-4cac-4c9d-bcc8-fbf068046448}, !- Activity Level Schedule Name
  ,                                       !- Surface Name/Angle Factor List Name
  {cfcfbfb2-fca7-449b-872f-b3cca2472007}, !- Work Efficiency Schedule Name
  {7071ac66-62fa-4ebd-b293-603ea78d0727}, !- Clothing Insulation Schedule Name
  {ac6156ee-d149-422b-8d74-ba1c33ec9b29}; !- Air Velocity Schedule Name

OS:People:Definition,
  {40ae475b-fd2f-4789-b72e-387b3085b43c}, !- Handle
  Corner_Class_2_Pod_3_ZN_1_FLR_2 People Definition, !- Name
  Area/Person,                            !- Number of People Calculation Method
  ,                                       !- Number of People {people}
  ,                                       !- People per Space Floor Area {person/m2}
  4,                                      !- Space Floor Area per Person {m2/person}
  0.3,                                    !- Fraction Radiant
  ,                                       !- Sensible Heat Fraction
  ,                                       !- Carbon Dioxide Generation Rate {m3/s-W}
  No,                                     !- Enable ASHRAE 55 Comfort Warnings
  ZoneAveraged,                           !- Mean Radiant Temperature Calculation Type
  FANGER;                                 !- Thermal Comfort Model Type 1

OS:Schedule:Compact,
  {e6a14218-073a-47ea-82a5-3b496f41bed5}, !- Handle
  BLDG_OCC_SCH,                           !- Name
  {ac1ced07-2c2b-4f73-bbf8-ebcd1c08e6d6}, !- Schedule Type Limits Name
  Through: 6/30,                          !- Field 1
  For: Weekdays SummerDesignDay,          !- Field 2
  Until: 08:00,                           !- Field 3
  0,                                      !- Field 4
  Until: 16:00,                           !- Field 5
  0.70,                                   !- Field 6
  Until: 21:00,                           !- Field 7
  0.15,                                   !- Field 8
  Until: 24:00,                           !- Field 9
  0,                                      !- Field 10
  For: AllOtherDays,                      !- Field 11
  Until: 24:00,                           !- Field 12
  0,                                      !- Field 13
  Through: 9/1,                           !- Field 14
  For: Weekdays SummerDesignDay,          !- Field 15
  Until: 08:00,                           !- Field 16
  0,                                      !- Field 17
  Until: 21:00,                           !- Field 18
  0.15,                                   !- Field 19
  Until: 24:00,                           !- Field 20
  0,                                      !- Field 21
  For: AllOtherDays,                      !- Field 22
  Until: 24:00,                           !- Field 23
  0,                                      !- Field 24
  Through: 12/31,                         !- Field 25
  For: Weekdays SummerDesignDay,          !- Field 26
  Until: 08:00,                           !- Field 27
  0,                                      !- Field 28
  Until: 16:00,                           !- Field 29
  0.70,                                   !- Field 30
  Until: 21:00,                           !- Field 31
  0.15,                                   !- Field 32
  Until: 24:00,                           !- Field 33
  0,                                      !- Field 34
  For: AllOtherDays,                      !- Field 35
  Until: 24:00,                           !- Field 36
  0;                                      !- Field 37

OS:Schedule:Compact,
  {4966819b-4cac-4c9d-bcc8-fbf068046448}, !- Handle
  ACTIVITY_SCH,                           !- Name
  {55882ddc-921a-4023-bc73-17bd3bf4fdd2}, !- Schedule Type Limits Name
  Through: 12/31,                         !- Field 1
  For: AllDays,                           !- Field 2
  Until: 24:00,                           !- Field 3
  120;                                    !- Field 4

OS:Schedule:Compact,
  {cfcfbfb2-fca7-449b-872f-b3cca2472007}, !- Handle
  WORK_EFF_SCH,                           !- Name
  {ac1ced07-2c2b-4f73-bbf8-ebcd1c08e6d6}, !- Schedule Type Limits Name
  Through: 12/31,                         !- Field 1
  For: AllDays,                           !- Field 2
  Until: 24:00,                           !- Field 3
  0;                                      !- Field 4

OS:Schedule:Compact,
  {7071ac66-62fa-4ebd-b293-603ea78d0727}, !- Handle
  CLOTHING_SCH,                           !- Name
  {2341c2cf-a2d8-458c-a85e-90a699f882a2}, !- Schedule Type Limits Name
  Through: 04/30,                         !- Field 1
  For: AllDays,                           !- Field 2
  Until: 24:00,                           !- Field 3
  1.1,                                    !- Field 4
  Through: 09/30,                         !- Field 5
  For: AllDays,                           !- Field 6
  Until: 24:00,                           !- Field 7
  0.6,                                    !- Field 8
  Through: 12/31,                         !- Field 9
  For: AllDays,                           !- Field 10
  Until: 24:00,                           !- Field 11
  1.1;                                    !- Field 12

OS:Schedule:Compact,
  {ac6156ee-d149-422b-8d74-ba1c33ec9b29}, !- Handle
  AIR_VELO_SCH,                           !- Name
  {227f095f-9352-4ba4-81d4-785836553417}, !- Schedule Type Limits Name
  Through: 12/31,                         !- Field 1
  For: AllDays,                           !- Field 2
  Until: 24:00,                           !- Field 3
  0.2;                                    !- Field 4

OS:ScheduleTypeLimits,
  {55882ddc-921a-4023-bc73-17bd3bf4fdd2}, !- Handle
  ActivityLevel,                          !- Name
  0,                                      !- Lower Limit Value {BasedOnField A4}
  ,                                       !- Upper Limit Value {BasedOnField A4}
  Continuous,                             !- Numeric Type
  ActivityLevel;                          !- Unit Type

OS:ScheduleTypeLimits,
  {2341c2cf-a2d8-458c-a85e-90a699f882a2}, !- Handle
  ClothingInsulation,                     !- Name
  0,                                      !- Lower Limit Value {BasedOnField A4}
  ,                                       !- Upper Limit Value {BasedOnField A4}
  Continuous,                             !- Numeric Type
  ClothingInsulation;                     !- Unit Type

OS:ScheduleTypeLimits,
  {227f095f-9352-4ba4-81d4-785836553417}, !- Handle
  Velocity,                               !- Name
  0,                                      !- Lower Limit Value {BasedOnField A4}
  ,                                       !- Upper Limit Value {BasedOnField A4}
  Continuous,                             !- Numeric Type
  Velocity;                               !- Unit Type
