
OS:Version,
  {30e48a18-e2fb-4217-8f3b-266fc3f44533}, !- Handle
  1.7.0;                                  !- Version Identifier

OS:ClimateZones,
  {8a3ac41c-57d4-48e4-a48e-1f232e262211}, !- Handle
  ,                                       !- Active Institution
  ,                                       !- Active Year
  ASHRAE,                                 !- Climate Zone Institution Name 1
  ANSI/ASHRAE Standard 169,               !- Climate Zone Document Name 1
  2006,                                   !- Climate Zone Document Year 1
  5B,                                     !- Climate Zone Value 1
  CEC,                                    !- Climate Zone Institution Name 2
  California Climate Zone Descriptions,   !- Climate Zone Document Name 2
  1995,                                   !- Climate Zone Document Year 2
  ;                                       !- Climate Zone Value 2

OS:LifeCycleCost:Parameters,
  {1d4d0f18-e6dd-45c8-896c-f4f2a89e6ae5}, !- Handle
  FEMP,                                   !- Analysis Type
  ,                                       !- Discounting Convention
  ,                                       !- Inflation Approach
  ,                                       !- Real Discount Rate
  ,                                       !- Nominal Discount Rate
  ,                                       !- Inflation
  ,                                       !- Base Date Month
  ,                                       !- Base Date Year
  ,                                       !- Service Date Month
  ,                                       !- Service Date Year
  ,                                       !- Length of Study Period in Years
  ,                                       !- Tax Rate
  ,                                       !- Depreciation Method
  Yes;                                    !- Use NIST Fuel Escalation Rates

OS:YearDescription,
  {c1349a5a-d7e1-4ed9-8e5b-24480649c25c}; !- Handle

OS:RadianceParameters,
  {8297fd56-36de-4b79-a182-b7636f4ae3e3}, !- Handle
  1,                                      !- Accumulated Rays per Record
  0,                                      !- Direct Threshold
  1,                                      !- Direct Certainty
  1,                                      !- Direct Jitter
  1,                                      !- Direct Pretest
  6,                                      !- Ambient Bounces VMX
  2,                                      !- Ambient Bounces DMX
  4050,                                   !- Ambient Divisions VMX
  512,                                    !- Ambient Divisions DMX
  256,                                    !- Ambient Supersamples
  0.001,                                  !- Limit Weight VMX
  0.001,                                  !- Limit Weight DMX
  500,                                    !- Klems Sampling Density
  146;                                    !- Sky Discretization Resolution

OS:SimulationControl,
  {7c57f4fc-548f-44e7-a438-1feca6a75629}; !- Handle

OS:Sizing:Parameters,
  {ee365675-827e-489e-9a24-0f596988dec4}, !- Handle
  1.25,                                   !- Heating Sizing Factor
  1.15;                                   !- Cooling Sizing Factor

OS:ProgramControl,
  {8a7b938e-cdcb-40af-82b1-79c267c36bae}; !- Handle

OS:Timestep,
  {31824a36-2f0f-4919-a534-cdb00e20d2e0}, !- Handle
  6;                                      !- Number of Timesteps per Hour

OS:OutputControl:ReportingTolerances,
  {275082a5-6cfd-4756-972e-8810ab253e29}; !- Handle

OS:ConvergenceLimits,
  {fcca1605-8471-4f2f-a485-a59582311771}; !- Handle

OS:ShadowCalculation,
  {d875de65-75c7-4d9d-883e-07bd79421b67}, !- Handle
  7,                                      !- Calculation Frequency
  15000;                                  !- Maximum Figures in Shadow Overlap Calculations

OS:SurfaceConvectionAlgorithm:Inside,
  {5add9a33-b760-4e82-a0f9-3ae0e369b9c4}, !- Handle
  TARP;                                   !- Algorithm

OS:SurfaceConvectionAlgorithm:Outside,
  {0257be16-14fc-418e-bc73-178201ccc4ec}, !- Handle
  DOE-2;                                  !- Algorithm

OS:HeatBalanceAlgorithm,
  {5a22c4c4-a6a6-4769-b0a8-f79498f98a6d}, !- Handle
  ConductionTransferFunction,             !- Algorithm
  200;                                    !- Surface Temperature Upper Limit {F}

OS:ZoneAirHeatBalanceAlgorithm,
  {24c912f8-6f7f-4792-8ea0-a8d47b3c41a1}, !- Handle
  AnalyticalSolution;                     !- Algorithm

OS:ZoneAirContaminantBalance,
  {07e7d420-4b9b-4760-8a70-01b36aa6074f}; !- Handle

OS:ZoneCapacitanceMultiplier:ResearchSpecial,
  {91056672-db13-4057-9cb7-7ac44d24bfc5}, !- Handle
  ,                                       !- Temperature Capacity Multiplier
  ,                                       !- Humidity Capacity Multiplier
  ;                                       !- Carbon Dioxide Capacity Multiplier

OS:RunPeriod,
  {17c33f47-c9b9-463a-84bc-12596f349148}, !- Handle
  Run Period 1,                           !- Name
  1,                                      !- Begin Month
  1,                                      !- Begin Day of Month
  12,                                     !- End Month
  31,                                     !- End Day of Month
  ,                                       !- Use Weather File Holidays and Special Days
  ,                                       !- Use Weather File Daylight Saving Period
  ,                                       !- Apply Weekend Holiday Rule
  ,                                       !- Use Weather File Rain Indicators
  ,                                       !- Use Weather File Snow Indicators
  ;                                       !- Number of Times Runperiod to be Repeated

OS:Building,
  {e0ce3521-4e53-4eca-8017-2f1c8dec2b50}, !- Handle
  Building 1,                             !- Name
  ,                                       !- Building Sector Type
  ,                                       !- North Axis {deg}
  ,                                       !- Nominal Floor to Floor Height {m}
  {eaaebba3-f2b7-4de1-8a7e-6bae9075e76b}, !- Space Type Name
  {c1258b14-1413-4646-abe5-0e09f4319d8c}, !- Default Construction Set Name
  ,                                       !- Default Schedule Set Name
  ,                                       !- Standards Number of Stories
  ,                                       !- Standards Number of Above Ground Stories
  ,                                       !- Standards Building Type
  ,                                       !- Standards Number of Living Units
  ,                                       !- Relocatable
  ;                                       !- Nominal Floor to Ceiling Height {m}

OS:Facility,
  {b6e6be84-f909-42a5-9deb-ef70c0296721}; !- Handle

OS:SpaceType,
  {fca6799c-dc83-4e26-9478-359ea954d095}, !- Handle
  DOE Ref 2004 - Office - BreakRoom,      !- Name
  ,                                       !- Default Construction Set Name
  {9365337d-942d-439e-ab47-7eff23fca67c}, !- Default Schedule Set Name
  {a33f72ed-966a-4d56-b7f2-bda5b6042b1f}, !- Group Rendering Name
  {cf2a5c81-33fd-43d0-b99a-3e491200d852}, !- Design Specification Outdoor Air Object Name
  Office,                                 !- Standards Building Type
  BreakRoom;                              !- Standards Space Type

OS:Rendering:Color,
  {a33f72ed-966a-4d56-b7f2-bda5b6042b1f}, !- Handle
  Rendering Color 1,                      !- Name
  230,                                    !- Rendering Red Value
  157,                                    !- Rendering Green Value
  120;                                    !- Rendering Blue Value

OS:DefaultScheduleSet,
  {9365337d-942d-439e-ab47-7eff23fca67c}, !- Handle
  DOE Ref 2004 - Office - BreakRoom Schedule Set, !- Name
  ,                                       !- Hours of Operation Schedule Name
  {6eb37e8d-03c2-4f35-bb5f-c49fc0f2f219}, !- Number of People Schedule Name
  {817840d5-6c17-47b1-ac35-eaed6674e44f}, !- People Activity Level Schedule Name
  {c1bbe042-e32e-4713-9a81-1789f329edb7}, !- Lighting Schedule Name
  {34aab7a8-8c5c-4e9d-b899-2efc9571249b}, !- Electric Equipment Schedule Name
  ,                                       !- Gas Equipment Schedule Name
  ,                                       !- Hot Water Equipment Schedule Name
  {4eb7d354-442d-46df-8f7c-389329858ad4}, !- Infiltration Schedule Name
  ,                                       !- Steam Equipment Schedule Name
  ;                                       !- Other Equipment Schedule Name

OS:Lights:Definition,
  {9fcf0f65-0693-43d7-bb1f-04a5b6ee0fe7}, !- Handle
  DOE Ref 2004 - Office - BreakRoom Lights Definition, !- Name
  Watts/Area,                             !- Design Level Calculation Method
  ,                                       !- Lighting Level {W}
  12.9166925000517,                       !- Watts per Space Floor Area {W/m2}
  ;                                       !- Watts per Person {W/person}

OS:Lights,
  {f0c0daef-c493-4a75-bd4e-0ee620ec83e4}, !- Handle
  DOE Ref 2004 - Office - BreakRoom Lights, !- Name
  {9fcf0f65-0693-43d7-bb1f-04a5b6ee0fe7}, !- Lights Definition Name
  {fca6799c-dc83-4e26-9478-359ea954d095}; !- Space or SpaceType Name

OS:Schedule:Ruleset,
  {c1bbe042-e32e-4713-9a81-1789f329edb7}, ! Handle
  Office Bldg Light,                      ! Name
  {746df863-01e4-48ae-9ca5-7667570aaa3d}, ! Schedule Type Limits Name
  {f0f296c1-8a15-4058-91d0-14c391665d2e}, ! Default Day Schedule Name
  {d5d36481-ea8a-4a28-be09-0b71cd8c9c6a}, ! Summer Design Day Schedule Name
  {abb1197c-3b50-49f1-827a-52a83235da48}; ! Winter Design Day Schedule Name

OS:ScheduleTypeLimits,
  {746df863-01e4-48ae-9ca5-7667570aaa3d}, ! Handle
  Fraction,                               ! Name
  0,                                      ! Lower Limit Value
  1,                                      ! Upper Limit Value
  CONTINUOUS;                             ! Numeric Type

OS:Schedule:Day,
  {f0f296c1-8a15-4058-91d0-14c391665d2e}, ! Handle
  Office Bldg Light Default Schedule,     ! Name
  {746df863-01e4-48ae-9ca5-7667570aaa3d}, ! Schedule Type Limits Name
  ,                                       ! Interpolate to Timestep
  5,                                      !- Hour 1
  0,                                      !- Minute 1
  0.05,                                   !- Value Until Time 1
  7,                                      !- Hour 2
  0,                                      !- Minute 2
  0.1,                                    !- Value Until Time 2
  8,                                      !- Hour 3
  0,                                      !- Minute 3
  0.3,                                    !- Value Until Time 3
  17,                                     !- Hour 4
  0,                                      !- Minute 4
  0.9,                                    !- Value Until Time 4
  18,                                     !- Hour 5
  0,                                      !- Minute 5
  0.7,                                    !- Value Until Time 5
  20,                                     !- Hour 6
  0,                                      !- Minute 6
  0.5,                                    !- Value Until Time 6
  22,                                     !- Hour 7
  0,                                      !- Minute 7
  0.3,                                    !- Value Until Time 7
  23,                                     !- Hour 8
  0,                                      !- Minute 8
  0.1,                                    !- Value Until Time 8
  24,                                     !- Hour 9
  0,                                      !- Minute 9
  0.05;                                   !- Value Until Time 9

OS:Schedule:Day,
  {d5d36481-ea8a-4a28-be09-0b71cd8c9c6a}, ! Handle
  Office Bldg Light Summer Design Day,    ! Name
  {746df863-01e4-48ae-9ca5-7667570aaa3d}, ! Schedule Type Limits Name
  ,                                       ! Interpolate to Timestep
  24,                                     ! Hour 1
  0,                                      ! Minute 1
  1;                                      ! Value Until Time 1

OS:Schedule:Day,
  {abb1197c-3b50-49f1-827a-52a83235da48}, ! Handle
  Office Bldg Light Winter Design Day,    ! Name
  {746df863-01e4-48ae-9ca5-7667570aaa3d}, ! Schedule Type Limits Name
  ,                                       ! Interpolate to Timestep
  24,                                     ! Hour 1
  0,                                      ! Minute 1
  0;                                      ! Value Until Time 1

OS:Schedule:Rule,
  {7967e649-3166-4a9c-a667-56100d893931}, ! Handle
  Office Bldg Light Rule 1,               ! Name
  {c1bbe042-e32e-4713-9a81-1789f329edb7}, ! Schedule Ruleset Name
  0,                                      ! Rule Order
  {f2a4e347-8261-482a-98a6-55853822939d}, ! Day Schedule Name
  Yes,                                    ! Apply Sunday
  No,                                     ! Apply Monday
  No,                                     ! Apply Tuesday
  No,                                     ! Apply Wednesday
  No,                                     ! Apply Thursday
  No,                                     ! Apply Friday
  No,                                     ! Apply Saturday
  ,                                       ! Apply Holiday
  DateRange,                              ! Date Specification Type
  1,                                      ! Start Month
  1,                                      ! Start Day
  12,                                     ! End Month
  31;                                     ! End Day

OS:Schedule:Day,
  {f2a4e347-8261-482a-98a6-55853822939d}, ! Handle
  Office Bldg Light Rule 1 Day Schedule,  ! Name
  {746df863-01e4-48ae-9ca5-7667570aaa3d}, ! Schedule Type Limits Name
  ,                                       ! Interpolate to Timestep
  24,                                     ! Hour 1
  0,                                      ! Minute 1
  0.050000000000000003;                   ! Value Until Time 1

OS:Schedule:Rule,
  {2a385792-98c6-4211-aa79-c983f81f304c}, ! Handle
  Office Bldg Light Rule 2,               ! Name
  {c1bbe042-e32e-4713-9a81-1789f329edb7}, ! Schedule Ruleset Name
  1,                                      ! Rule Order
  {54b2b931-bf49-40e7-a0b5-6eafc68e0513}, ! Day Schedule Name
  No,                                     ! Apply Sunday
  No,                                     ! Apply Monday
  No,                                     ! Apply Tuesday
  No,                                     ! Apply Wednesday
  No,                                     ! Apply Thursday
  No,                                     ! Apply Friday
  Yes,                                    ! Apply Saturday
  ,                                       ! Apply Holiday
  DateRange,                              ! Date Specification Type
  1,                                      ! Start Month
  1,                                      ! Start Day
  12,                                     ! End Month
  31;                                     ! End Day

OS:Schedule:Day,
  {54b2b931-bf49-40e7-a0b5-6eafc68e0513}, ! Handle
  Office Bldg Light Rule 2 Day Schedule,  ! Name
  {746df863-01e4-48ae-9ca5-7667570aaa3d}, ! Schedule Type Limits Name
  ,                                       ! Interpolate to Timestep
  6,                                      ! Hour 1
  0,                                      ! Minute 1
  0.050000000000000003,                   ! Value Until Time 1
  8,                                      ! Hour 2
  0,                                      ! Minute 2
  0.10000000000000001,                    ! Value Until Time 2
  14,                                     ! Hour 3
  0,                                      ! Minute 3
  0.5,                                    ! Value Until Time 3
  17,                                     ! Hour 4
  0,                                      ! Minute 4
  0.14999999999999999,                    ! Value Until Time 4
  24,                                     ! Hour 5
  0,                                      ! Minute 5
  0.050000000000000003;                   ! Value Until Time 5

OS:DesignSpecification:OutdoorAir,
  {cf2a5c81-33fd-43d0-b99a-3e491200d852}, !- Handle
  DOE Ref 2004 - Office - BreakRoom Ventilation, !- Name
  Sum,                                    !- Outdoor Air Method
  0.007079211648,                         !- Outdoor Air Flow per Person {m3/s-person}
  ,                                       !- Outdoor Air Flow per Floor Area {m3/s-m2}
  ,                                       !- Outdoor Air Flow Rate {m3/s}
  ,                                       !- Outdoor Air Flow Air Changes per Hour {1/hr}
  ;                                       !- Outdoor Air Flow Rate Fraction Schedule Name

OS:People:Definition,
  {7f47e9f1-e47b-412c-9732-08fda8aacc91}, !- Handle
  DOE Ref 2004 - Office - BreakRoom People Definition, !- Name
  People/Area,                            !- Number of People Calculation Method
  ,                                       !- Number of People {people}
  0.538195520835486,                      !- People per Space Floor Area {person/m2}
  ,                                       !- Space Floor Area per Person {m2/person}
  0.3;                                    !- Fraction Radiant

OS:People,
  {09dec61f-68ad-4897-b467-b6633c5224f2}, !- Handle
  DOE Ref 2004 - Office - BreakRoom People, !- Name
  {7f47e9f1-e47b-412c-9732-08fda8aacc91}, !- People Definition Name
  {fca6799c-dc83-4e26-9478-359ea954d095}; !- Space or SpaceType Name

OS:Schedule:Ruleset,
  {6eb37e8d-03c2-4f35-bb5f-c49fc0f2f219}, ! Handle
  Office Misc Occ,                        ! Name
  {746df863-01e4-48ae-9ca5-7667570aaa3d}, ! Schedule Type Limits Name
  {8789821f-8248-4b9f-ba50-38a49d20d354}, ! Default Day Schedule Name
  {92cce61d-0f6f-4f24-ba39-9da81dc7ec2b}, ! Summer Design Day Schedule Name
  {ff89aa13-1493-486b-8d5e-25da8313a8bf}; ! Winter Design Day Schedule Name

OS:Schedule:Day,
  {8789821f-8248-4b9f-ba50-38a49d20d354}, ! Handle
  Office Bldg Occ Default Schedule 1,     ! Name
  {746df863-01e4-48ae-9ca5-7667570aaa3d}, ! Schedule Type Limits Name
  ,                                       ! Interpolate to Timestep
  6,                                      !- Hour 1
  0,                                      !- Minute 1
  0,                                      !- Value Until Time 1
  7,                                      !- Hour 2
  0,                                      !- Minute 2
  0.100000001490116,                      !- Value Until Time 2
  8,                                      !- Hour 3
  0,                                      !- Minute 3
  0.200000002980232,                      !- Value Until Time 3
  20,                                     !- Hour 4
  0,                                      !- Minute 4
  0.400000005960464,                      !- Value Until Time 4
  22,                                     !- Hour 5
  0,                                      !- Minute 5
  0.100000001490116,                      !- Value Until Time 5
  24,                                     !- Hour 6
  0,                                      !- Minute 6
  0.0500000007450581;                     !- Value Until Time 6

OS:Schedule:Day,
  {92cce61d-0f6f-4f24-ba39-9da81dc7ec2b}, ! Handle
  Office Bldg Occ Summer Design Day 1,    ! Name
  {746df863-01e4-48ae-9ca5-7667570aaa3d}, ! Schedule Type Limits Name
  ,                                       ! Interpolate to Timestep
  6,                                      ! Hour 1
  0,                                      ! Minute 1
  0,                                      ! Value Until Time 1
  22,                                     ! Hour 2
  0,                                      ! Minute 2
  1,                                      ! Value Until Time 2
  24,                                     ! Hour 3
  0,                                      ! Minute 3
  0.050000000000000003;                   ! Value Until Time 3

OS:Schedule:Day,
  {ff89aa13-1493-486b-8d5e-25da8313a8bf}, ! Handle
  Office Bldg Occ Winter Design Day 1,    ! Name
  {746df863-01e4-48ae-9ca5-7667570aaa3d}, ! Schedule Type Limits Name
  ,                                       ! Interpolate to Timestep
  24,                                     ! Hour 1
  0,                                      ! Minute 1
  0;                                      ! Value Until Time 1

OS:Schedule:Rule,
  {6ef8536f-3c75-4004-8b28-d92d0bf3dd6d}, ! Handle
  Office Misc Occ Rule 1,                 ! Name
  {6eb37e8d-03c2-4f35-bb5f-c49fc0f2f219}, ! Schedule Ruleset Name
  0,                                      ! Rule Order
  {a1013e51-0369-465a-86fc-e7a2ea194b5f}, ! Day Schedule Name
  Yes,                                    ! Apply Sunday
  No,                                     ! Apply Monday
  No,                                     ! Apply Tuesday
  No,                                     ! Apply Wednesday
  No,                                     ! Apply Thursday
  No,                                     ! Apply Friday
  No,                                     ! Apply Saturday
  ,                                       ! Apply Holiday
  DateRange,                              ! Date Specification Type
  1,                                      ! Start Month
  1,                                      ! Start Day
  12,                                     ! End Month
  31;                                     ! End Day

OS:Schedule:Day,
  {a1013e51-0369-465a-86fc-e7a2ea194b5f}, ! Handle
  Office Bldg Occ Rule 1 Day Schedule 1,  ! Name
  {746df863-01e4-48ae-9ca5-7667570aaa3d}, ! Schedule Type Limits Name
  ,                                       ! Interpolate to Timestep
  24,                                     ! Hour 1
  0,                                      ! Minute 1
  0;                                      ! Value Until Time 1

OS:Schedule:Rule,
  {00c6e55a-663a-4299-9207-8bd5291393b6}, ! Handle
  Office Misc Occ Rule 2,                 ! Name
  {6eb37e8d-03c2-4f35-bb5f-c49fc0f2f219}, ! Schedule Ruleset Name
  1,                                      ! Rule Order
  {639f3b69-fe69-4d67-b114-35098592c2f3}, ! Day Schedule Name
  No,                                     ! Apply Sunday
  No,                                     ! Apply Monday
  No,                                     ! Apply Tuesday
  No,                                     ! Apply Wednesday
  No,                                     ! Apply Thursday
  No,                                     ! Apply Friday
  Yes,                                    ! Apply Saturday
  ,                                       ! Apply Holiday
  DateRange,                              ! Date Specification Type
  1,                                      ! Start Month
  1,                                      ! Start Day
  12,                                     ! End Month
  31;                                     ! End Day

OS:Schedule:Day,
  {639f3b69-fe69-4d67-b114-35098592c2f3}, ! Handle
  Office Bldg Occ Rule 2 Day Schedule 1,  ! Name
  {746df863-01e4-48ae-9ca5-7667570aaa3d}, ! Schedule Type Limits Name
  ,                                       ! Interpolate to Timestep
  6,                                      !- Hour 1
  0,                                      !- Minute 1
  0,                                      !- Value Until Time 1
  8,                                      !- Hour 2
  0,                                      !- Minute 2
  0.100000001490116,                      !- Value Until Time 2
  14,                                     !- Hour 3
  0,                                      !- Minute 3
  0.25,                                   !- Value Until Time 3
  17,                                     !- Hour 4
  0,                                      !- Minute 4
  0.100000001490116,                      !- Value Until Time 4
  24,                                     !- Hour 5
  0,                                      !- Minute 5
  0;                                      !- Value Until Time 5

OS:Schedule:Ruleset,
  {817840d5-6c17-47b1-ac35-eaed6674e44f}, ! Handle
  Office Activity,                        ! Name
  {bed32a26-8602-4a29-b1eb-0c762f5c2153}, ! Schedule Type Limits Name
  {af4a1829-29a2-4424-a60b-bfb5ad0be187}, ! Default Day Schedule Name
  {698b90f5-d4ff-4007-8bec-7a9bf3a55b06}, ! Summer Design Day Schedule Name
  {c28dbf8a-8104-4af6-9717-fb3455548e5b}; ! Winter Design Day Schedule Name

OS:ScheduleTypeLimits,
  {bed32a26-8602-4a29-b1eb-0c762f5c2153}, !- Handle
  ActivityLevel,                          !- Name
  0,                                      !- Lower Limit Value {BasedOnField A4}
  ,                                       !- Upper Limit Value {BasedOnField A4}
  Continuous,                             !- Numeric Type
  ActivityLevel;                          !- Unit Type

OS:Schedule:Day,
  {af4a1829-29a2-4424-a60b-bfb5ad0be187}, ! Handle
  Office Activity Default Schedule,       ! Name
  {bed32a26-8602-4a29-b1eb-0c762f5c2153}, ! Schedule Type Limits Name
  ,                                       ! Interpolate to Timestep
  24,                                     !- Hour 1
  0,                                      !- Minute 1
  132;                                    !- Value Until Time 1

OS:Schedule:Day,
  {698b90f5-d4ff-4007-8bec-7a9bf3a55b06}, ! Handle
  Office Activity Summer Design Day,      ! Name
  {bed32a26-8602-4a29-b1eb-0c762f5c2153}, ! Schedule Type Limits Name
  ,                                       ! Interpolate to Timestep
  24,                                     !- Hour 1
  0,                                      !- Minute 1
  132;                                    !- Value Until Time 1

OS:Schedule:Day,
  {c28dbf8a-8104-4af6-9717-fb3455548e5b}, ! Handle
  Office Activity Winter Design Day,      ! Name
  {bed32a26-8602-4a29-b1eb-0c762f5c2153}, ! Schedule Type Limits Name
  ,                                       ! Interpolate to Timestep
  24,                                     !- Hour 1
  0,                                      !- Minute 1
  132;                                    !- Value Until Time 1

OS:SpaceInfiltration:DesignFlowRate,
  {a896bc88-59bc-4fb2-b007-9763127bac95}, !- Handle
  DOE Ref 2004 - Office - BreakRoom Infiltration, !- Name
  {fca6799c-dc83-4e26-9478-359ea954d095}, !- Space or SpaceType Name
  ,                                       !- Schedule Name
  Flow/ExteriorArea,                      !- Design Flow Rate Calculation Method
  ,                                       !- Design Flow Rate {m3/s}
  ,                                       !- Flow per Space Floor Area {m3/s-m2}
  0.00030226,                             !- Flow per Exterior Surface Area {m3/s-m2}
  ,                                       !- Air Changes per Hour {1/hr}
  ,                                       !- Constant Term Coefficient
  ,                                       !- Temperature Term Coefficient
  ,                                       !- Velocity Term Coefficient
  ;                                       !- Velocity Squared Term Coefficient

OS:Schedule:Ruleset,
  {4eb7d354-442d-46df-8f7c-389329858ad4}, ! Handle
  Office Infil Quarter On,                ! Name
  {746df863-01e4-48ae-9ca5-7667570aaa3d}, ! Schedule Type Limits Name
  {48556db8-2ad0-496d-ae3a-43e7295ce901}, ! Default Day Schedule Name
  {745c0ef7-485c-4ce0-9a43-677d1143a46f}, ! Summer Design Day Schedule Name
  {6100a3a3-9617-423b-a9c5-c86d4f021442}; ! Winter Design Day Schedule Name

OS:Schedule:Day,
  {48556db8-2ad0-496d-ae3a-43e7295ce901}, ! Handle
  Office Infil Quarter On Default Schedule, ! Name
  {746df863-01e4-48ae-9ca5-7667570aaa3d}, ! Schedule Type Limits Name
  ,                                       ! Interpolate to Timestep
  6,                                      !- Hour 1
  0,                                      !- Minute 1
  1,                                      !- Value Until Time 1
  22,                                     !- Hour 2
  0,                                      !- Minute 2
  0.25,                                   !- Value Until Time 2
  24,                                     !- Hour 3
  0,                                      !- Minute 3
  1;                                      !- Value Until Time 3

OS:Schedule:Day,
  {745c0ef7-485c-4ce0-9a43-677d1143a46f}, ! Handle
  Office Infil Quarter On Summer Design Day, ! Name
  {746df863-01e4-48ae-9ca5-7667570aaa3d}, ! Schedule Type Limits Name
  ,                                       ! Interpolate to Timestep
  6,                                      ! Hour 1
  0,                                      ! Minute 1
  1,                                      ! Value Until Time 1
  22,                                     ! Hour 2
  0,                                      ! Minute 2
  0.25,                                   ! Value Until Time 2
  24,                                     ! Hour 3
  0,                                      ! Minute 3
  1;                                      ! Value Until Time 3

OS:Schedule:Day,
  {6100a3a3-9617-423b-a9c5-c86d4f021442}, ! Handle
  Office Infil Quarter On Winter Design Day, ! Name
  {746df863-01e4-48ae-9ca5-7667570aaa3d}, ! Schedule Type Limits Name
  ,                                       ! Interpolate to Timestep
  6,                                      ! Hour 1
  0,                                      ! Minute 1
  1,                                      ! Value Until Time 1
  18,                                     ! Hour 2
  0,                                      ! Minute 2
  0.25,                                   ! Value Until Time 2
  24,                                     ! Hour 3
  0,                                      ! Minute 3
  1;                                      ! Value Until Time 3

OS:Schedule:Rule,
  {b060c2f6-9dbe-4615-b30f-925e012c8aaa}, ! Handle
  Office Infil Quarter On Rule 1,         ! Name