
OS:Version,
  {920cc410-5d55-4696-ba02-69fbdd3dd34f}, !- Handle
  1.6.3;                                  !- Version Identifier

OS:Site,
  {54a48d73-8086-465d-9192-cf13fd3462f5}, !- Handle
  USA IL-CHICAGO-OHARE,                   !- Name
  41.77,                                  !- Latitude {deg}
  -87.75,                                 !- Longitude {deg}
  -6,                                     !- Time Zone {hr}
  190,                                    !- Elevation {m}
  City;                                   !- Terrain

OS:SimulationControl,
  {bc5a8497-dba5-4b62-b03a-bdb5985e5115}, !- Handle
  Yes,                                    !- Do Zone Sizing Calculation
  Yes,                                    !- Do System Sizing Calculation
  Yes,                                    !- Do Plant Sizing Calculation
  Yes,                                    !- Run Simulation for Sizing Periods
  No,                                     !- Run Simulation for Weather File Run Periods
  0.04,                                   !- Loads Convergence Tolerance Value
  0.2,                                    !- Temperature Convergence Tolerance Value {deltaC}
  FullInteriorAndExterior,                !- Solar Distribution
  25,                                     !- Maximum Number of Warmup Days
  6;                                      !- Minimum Number of Warmup Days

OS:People:Definition,
  {d2fbb9b9-edf7-4233-b4a2-0e575f738f20}, !- Handle
  LIBRARY_MEDIA_CENTER_ZN_1_FLR_2 People Definition, !- Name
  Area/Person,                            !- Number of People Calculation Method
  ,                                       !- Number of People {people}
  ,                                       !- People per Space Floor Area {person/m2}
  4.35,                                   !- Space Floor Area per Person {m2/person}
  0.3,                                    !- Fraction Radiant
  ,                                       !- Sensible Heat Fraction
  ,                                       !- Carbon Dioxide Generation Rate {m3/s-W}
  No,                                     !- Enable ASHRAE 55 Comfort Warnings
  ZoneAveraged,                           !- Mean Radiant Temperature Calculation Type
  FANGER;                                 !- Thermal Comfort Model Type 1

OS:ThermalZone,
  {8e3b0d7d-e62a-4470-980b-5c65e360625e}, !- Handle
  LIBRARY_MEDIA_CENTER_ZN_1_FLR_2 Thermal Zone, !- Name
  1,                                      !- Multiplier
  ,                                       !- Ceiling Height {m}
  ,                                       !- Volume {m3}
  ,                                       !- Floor Area {m2}
  ,                                       !- Zone Inside Convection Algorithm
  ,                                       !- Zone Outside Convection Algorithm
  ,                                       !- Zone Conditioning Equipment List Name
  {9b4fb067-5e2e-4e99-bc1c-d949fb46d5e6}, !- Zone Air Inlet Port List
  {e0f66239-5f3a-4f72-abce-56db06552341}, !- Zone Air Exhaust Port List
  {5a8a0478-7a3f-44a1-9559-b3761a292d88}, !- Zone Air Node Name
  ,                                       !- Zone Return Air Node Name
  ,                                       !- Primary Daylighting Control Name
  ,                                       !- Fraction of Zone Controlled by Primary Daylighting Control
  ,                                       !- Secondary Daylighting Control Name
  ,                                       !- Fraction of Zone Controlled by Secondary Daylighting Control
  ,                                       !- Illuminance Map Name
  {afcdf954-7cb9-4291-bc54-ccd02f3a79c5}, !- Group Rendering Name
  {c183bd0e-585d-41bc-a38d-c8e4c0bc92ff}, !- Thermostat Name
  No;                                     !- Use Ideal Air Loads

OS:Node,
  {9659876c-144c-44a7-a27c-dcdbfe979049}, !- Handle
  {37f38a41-74ff-4128-ae98-ea3b7fda318c}, !- Name
  {5a8a0478-7a3f-44a1-9559-b3761a292d88}, !- Inlet Port
  ;                                       !- Outlet Port

OS:Connection,
  {5a8a0478-7a3f-44a1-9559-b3761a292d88}, !- Handle
  {ad266753-2d63-4e47-be61-ea63c9937fa5}, !- Name
  {8e3b0d7d-e62a-4470-980b-5c65e360625e}, !- Source Object
  11,                                     !- Outlet Port
  {9659876c-144c-44a7-a27c-dcdbfe979049}, !- Target Object
  2;                                      !- Inlet Port

OS:PortList,
  {9b4fb067-5e2e-4e99-bc1c-d949fb46d5e6}, !- Handle
  {e90e87de-2719-4a11-b24e-6220775014f9}, !- Name
  {8e3b0d7d-e62a-4470-980b-5c65e360625e}; !- HVAC Component

OS:PortList,
  {e0f66239-5f3a-4f72-abce-56db06552341}, !- Handle
  {8a8cf5ba-2c48-487d-9cb5-ad620c92f2e1}, !- Name
  {8e3b0d7d-e62a-4470-980b-5c65e360625e}; !- HVAC Component

OS:Sizing:Zone,
  {2c2392d4-e570-4139-a10b-4c83d14f4194}, !- Handle
  {8e3b0d7d-e62a-4470-980b-5c65e360625e}, !- Zone or ZoneList Name
  12.8,                                   !- Zone Cooling Design Supply Air Temperature {C}
  50,                                     !- Zone Heating Design Supply Air Temperature {C}
  0.0085,                                 !- Zone Cooling Design Supply Air Humidity Ratio {kg-H2O/kg-air}
  0.008,                                  !- Zone Heating Design Supply Air Humidity Ratio {kg-H2O/kg-air}
  ,                                       !- Zone Heating Sizing Factor
  ,                                       !- Zone Cooling Sizing Factor
  DesignDay,                              !- Cooling Design Air Flow Method
  ,                                       !- Cooling Design Air Flow Rate {m3/s}
  ,                                       !- Cooling Minimum Air Flow per Zone Floor Area {m3/s-m2}
  ,                                       !- Cooling Minimum Air Flow {m3/s}
  ,                                       !- Cooling Minimum Air Flow Fraction
  DesignDay,                              !- Heating Design Air Flow Method
  ,                                       !- Heating Design Air Flow Rate {m3/s}
  ,                                       !- Heating Maximum Air Flow per Zone Floor Area {m3/s-m2}
  ,                                       !- Heating Maximum Air Flow {m3/s}
  ,                                       !- Heating Maximum Air Flow Fraction
  ,                                       !- Design Zone Air Distribution Effectiveness in Cooling Mode
  ;                                       !- Design Zone Air Distribution Effectiveness in Heating Mode

OS:ZoneHVAC:EquipmentList,
  {71ab4a5d-728d-4bba-bdee-99d3dbd17669}, !- Handle
  {a9f92ee3-9fda-4efe-aa7d-a414021dadbd}, !- Name
  {8e3b0d7d-e62a-4470-980b-5c65e360625e}; !- Thermal Zone

OS:Space,
  {ed9b2900-594c-4289-85be-8794766becf5}, !- Handle
  LIBRARY_MEDIA_CENTER_ZN_1_FLR_2,        !- Name
  ,                                       !- Space Type Name
  ,                                       !- Default Construction Set Name
  ,                                       !- Default Schedule Set Name
  0,                                      !- Direction of Relative North {deg}
  117,                                    !- X Origin {m}
  66,                                     !- Y Origin {m}
  4,                                      !- Z Origin {m}
  ,                                       !- Building Story Name
  {8e3b0d7d-e62a-4470-980b-5c65e360625e}, !- Thermal Zone Name
  Yes,                                    !- Part of Total Floor Area
  ;                                       !- Design Specification Outdoor Air Object Name

OS:ThermostatSetpoint:DualSetpoint,
  {c183bd0e-585d-41bc-a38d-c8e4c0bc92ff}, !- Handle
  {ebff75d9-2c5f-453e-8410-131ef9a8cae1}, !- Name
  {bb9f1690-e373-4f36-8fec-9a225bf0ddb9}, !- Heating Setpoint Temperature Schedule Name
  {bbbd317a-ee78-4631-85c2-ebea40734a61}; !- Cooling Setpoint Temperature Schedule Name

OS:Schedule:Compact,
  {bb9f1690-e373-4f36-8fec-9a225bf0ddb9}, !- Handle
  HTGSETP_SCH,                            !- Name
  {0d1bac2b-dc6d-4f99-a964-80451fb4798e}, !- Schedule Type Limits Name
  Through: 6/30,                          !- Field 1
  For: WinterDesignDay,                   !- Field 2
  Until: 24:00,                           !- Field 3
  21,                                     !- Field 4
  For: WeekEnds Holidays SummerDesignDay, !- Field 5
  Until: 24:00,                           !- Field 6
  16,                                     !- Field 7
  For: AllOtherDays,                      !- Field 8
  Until: 06:00,                           !- Field 9
  16,                                     !- Field 10
  Until: 21:00,                           !- Field 11
  21,                                     !- Field 12
  Until: 24:00,                           !- Field 13
  16,                                     !- Field 14
  Through: 9/1,                           !- Field 15
  For: WinterDesignDay,                   !- Field 16
  Until: 24:00,                           !- Field 17
  21,                                     !- Field 18
  For: WeekEnds Holidays SummerDesignDay, !- Field 19
  Until: 24:00,                           !- Field 20
  16,                                     !- Field 21
  For: AllOtherDays,                      !- Field 22
  Until: 07:00,                           !- Field 23
  16,                                     !- Field 24
  Until: 18:00,                           !- Field 25
  21,                                     !- Field 26
  Until: 24:00,                           !- Field 27
  16,                                     !- Field 28
  Through: 12/31,                         !- Field 29
  For: WinterDesignDay,                   !- Field 30
  Until: 24:00,                           !- Field 31
  21,                                     !- Field 32
  For: WeekEnds Holidays SummerDesignDay, !- Field 33
  Until: 24:00,                           !- Field 34
  16,                                     !- Field 35
  For: AllOtherDays,                      !- Field 36
  Until: 06:00,                           !- Field 37
  16,                                     !- Field 38
  Until: 21:00,                           !- Field 39
  21,                                     !- Field 40
  Until: 24:00,                           !- Field 41
  16;                                     !- Field 42

OS:ScheduleTypeLimits,
  {0d1bac2b-dc6d-4f99-a964-80451fb4798e}, !- Handle
  Temperature,                            !- Name
  -60,                                    !- Lower Limit Value {BasedOnField A4}
  200,                                    !- Upper Limit Value {BasedOnField A4}
  CONTINUOUS,                             !- Numeric Type
  Temperature;                            !- Unit Type

OS:Schedule:Compact,
  {bbbd317a-ee78-4631-85c2-ebea40734a61}, !- Handle
  CLGSETP_SCH,                            !- Name
  {0d1bac2b-dc6d-4f99-a964-80451fb4798e}, !- Schedule Type Limits Name
  Through: 6/30,                          !- Field 1
  For: SummerDesignDay,                   !- Field 2
  Until: 24:00,                           !- Field 3
  24,                                     !- Field 4
  For: WeekEnds Holidays WinterDesignDay, !- Field 5
  Until: 24:00,                           !- Field 6
  27,                                     !- Field 7
  For: AllOtherDays,                      !- Field 8
  Until: 06:00,                           !- Field 9
  27,                                     !- Field 10
  Until: 21:00,                           !- Field 11
  24,                                     !- Field 12
  Until: 24:00,                           !- Field 13
  27,                                     !- Field 14
  Through: 9/1,                           !- Field 15
  For: SummerDesignDay,                   !- Field 16
  Until: 24:00,                           !- Field 17
  24,                                     !- Field 18
  For: WeekEnds Holidays WinterDesignDay, !- Field 19
  Until: 24:00,                           !- Field 20
  27,                                     !- Field 21
  For: AllOtherDays,                      !- Field 22
  Until: 07:00,                           !- Field 23
  27,                                     !- Field 24
  Until: 18:00,                           !- Field 25
  24,                                     !- Field 26
  Until: 24:00,                           !- Field 27
  27,                                     !- Field 28
  Through: 12/31,                         !- Field 29
  For: SummerDesignDay,                   !- Field 30
  Until: 24:00,                           !- Field 31
  24,                                     !- Field 32
  For: WeekEnds Holidays WinterDesignDay, !- Field 33
  Until: 24:00,                           !- Field 34
  27,                                     !- Field 35
  For: AllOtherDays,                      !- Field 36
  Until: 06:00,                           !- Field 37
  27,                                     !- Field 38
  Until: 21:00,                           !- Field 39
  24,                                     !- Field 40
  Until: 24:00,                           !- Field 41
  27;                                     !- Field 42

OS:Schedule:Compact,
  {40ba766c-e0d8-4616-b00a-057524078c03}, !- Handle
  BLDG_OCC_SCH,                           !- Name
  {fc4ac2df-cda1-4961-85a9-831383eabe77}, !- Schedule Type Limits Name
  Through: 6/30,                          !- Field 1
  For: Weekdays SummerDesignDay,          !- Field 2
  Until: 08:00,                           !- Field 3
  0,                                      !- Field 4
  Until: 16:00,                           !- Field 5
  0.70,                                   !- Field 6
  Until: 21:00,                           !- Field 7
  0.15,                                   !- Field 8
  Until: 24:00,                           !- Field 9
  0,                                      !- Field 10
  For: AllOtherDays,                      !- Field 11
  Until: 24:00,                           !- Field 12
  0,                                      !- Field 13
  Through: 9/1,                           !- Field 14
  For: Weekdays SummerDesignDay,          !- Field 15
  Until: 08:00,                           !- Field 16
  0,                                      !- Field 17
  Until: 21:00,                           !- Field 18
  0.15,                                   !- Field 19
  Until: 24:00,                           !- Field 20
  0,                                      !- Field 21
  For: AllOtherDays,                      !- Field 22
  Until: 24:00,                           !- Field 23
  0,                                      !- Field 24
  Through: 12/31,                         !- Field 25
  For: Weekdays SummerDesignDay,          !- Field 26
  Until: 08:00,                           !- Field 27
  0,                                      !- Field 28
  Until: 16:00,                           !- Field 29
  0.70,                                   !- Field 30
  Until: 21:00,                           !- Field 31
  0.15,                                   !- Field 32
  Until: 24:00,                           !- Field 33
  0,                                      !- Field 34
  For: AllOtherDays,                      !- Field 35
  Until: 24:00,                           !- Field 36
  0;                                      !- Field 37

OS:ScheduleTypeLimits,
  {fc4ac2df-cda1-4961-85a9-831383eabe77}, !- Handle
  Fraction,                               !- Name
  0,                                      !- Lower Limit Value {BasedOnField A4}
  1,                                      !- Upper Limit Value {BasedOnField A4}
  CONTINUOUS;                             !- Numeric Type

OS:Schedule:Compact,
  {d76bdbe5-a74e-4ccc-bfd7-35d6ef49c827}, !- Handle
  ACTIVITY_SCH,                           !- Name
  {9cc43eaa-e1b3-4f4d-9535-a11ce25fff76}, !- Schedule Type Limits Name
  Through: 12/31,                         !- Field 1
  For: AllDays,                           !- Field 2
  Until: 24:00,                           !- Field 3
  120;                                    !- Field 4

OS:ScheduleTypeLimits,
  {d12dd8df-0d12-447c-a4f4-4462476e3721}, !- Handle
  {89ce129e-929c-4149-8ea0-b9f347aa3258}; !- Name

OS:ScheduleTypeLimits,
  {9cc43eaa-e1b3-4f4d-9535-a11ce25fff76}, !- Handle
  ActivityLevel,                          !- Name
  0,                                      !- Lower Limit Value {BasedOnField A4}
  ,                                       !- Upper Limit Value {BasedOnField A4}
  Continuous,                             !- Numeric Type
  ActivityLevel;                          !- Unit Type

OS:Schedule:Compact,
  {a3354f13-68b0-4774-8a28-b740dffa34d4}, !- Handle
  WORK_EFF_SCH,                           !- Name
  {fc4ac2df-cda1-4961-85a9-831383eabe77}, !- Schedule Type Limits Name
  Through: 12/31,                         !- Field 1
  For: AllDays,                           !- Field 2
  Until: 24:00,                           !- Field 3
  0;                                      !- Field 4

OS:Schedule:Compact,
  {6d1c0572-3e43-4bb6-932f-8a965c56edcd}, !- Handle
  CLOTHING_SCH,                           !- Name
  {968849de-1a9f-4dca-ad93-477c51b5eff2}, !- Schedule Type Limits Name
  Through: 04/30,                         !- Field 1
  For: AllDays,                           !- Field 2
  Until: 24:00,                           !- Field 3
  1.1,                                    !- Field 4
  Through: 09/30,                         !- Field 5
  For: AllDays,                           !- Field 6
  Until: 24:00,                           !- Field 7
  0.6,                                    !- Field 8
  Through: 12/31,                         !- Field 9
  For: AllDays,                           !- Field 10
  Until: 24:00,                           !- Field 11
  1.1;                                    !- Field 12

OS:ScheduleTypeLimits,
  {5b76a902-57e8-40e4-bb2f-30443d7a699d}, !- Handle
  {f912f286-6728-420a-a7fa-eacf24c25273}; !- Name

OS:ScheduleTypeLimits,
  {968849de-1a9f-4dca-ad93-477c51b5eff2}, !- Handle
  ClothingInsulation,                     !- Name
  0,                                      !- Lower Limit Value {BasedOnField A4}
  ,                                       !- Upper Limit Value {BasedOnField A4}
  Continuous,                             !- Numeric Type
  ClothingInsulation;                     !- Unit Type

OS:Schedule:Compact,
  {b7d278e0-2df4-47a9-861d-ad72b1357686}, !- Handle
  AIR_VELO_SCH,                           !- Name
  {2854d3cb-67a2-44b5-9156-019337ad585b}, !- Schedule Type Limits Name
  Through: 12/31,                         !- Field 1
  For: AllDays,                           !- Field 2
  Until: 24:00,                           !- Field 3
  0.2;                                    !- Field 4

OS:ScheduleTypeLimits,
  {fe6bba8e-cae8-467c-8342-d4916ba88396}, !- Handle
  {0591036b-5bc6-4d35-b115-2b1e2dbf92e4}; !- Name

OS:ScheduleTypeLimits,
  {2854d3cb-67a2-44b5-9156-019337ad585b}, !- Handle
  Velocity,                               !- Name
  0,                                      !- Lower Limit Value {BasedOnField A4}
  ,                                       !- Upper Limit Value {BasedOnField A4}
  Continuous,                             !- Numeric Type
  Velocity;                               !- Unit Type

OS:ThermalZone,
  {0f50dc52-46bd-42c7-a908-eecdf66603ce}, !- Handle
  Corner_Class_2_Pod_2_ZN_1_FLR_2 Thermal Zone, !- Name
  1,                                      !- Multiplier
  ,                                       !- Ceiling Height {m}
  ,                                       !- Volume {m3}
  ,                                       !- Floor Area {m2}
  ,                                       !- Zone Inside Convection Algorithm
  ,                                       !- Zone Outside Convection Algorithm
  ,                                       !- Zone Conditioning Equipment List Name
  {6c8093de-aede-4a0e-b27d-c02ac0071aaf}, !- Zone Air Inlet Port List
  {c4741f27-08a6-4f9e-9fa8-19ca6759bc18}, !- Zone Air Exhaust Port List
  {2103f237-b16f-4e33-beb8-b668bee77ea2}, !- Zone Air Node Name
  ,                                       !- Zone Return Air Node Name
  ,                                       !- Primary Daylighting Control Name
  ,                                       !- Fraction of Zone Controlled by Primary Daylighting Control
  ,                                       !- Secondary Daylighting Control Name
  ,                                       !- Fraction of Zone Controlled by Secondary Daylighting Control
  ,                                       !- Illuminance Map Name
  {3678ed83-df9e-4fa8-803f-9c80f1053462}, !- Group Rendering Name
  {e06e4eb2-3e23-4e5f-82c2-a42bb82a0059}, !- Thermostat Name
  No;                                     !- Use Ideal Air Loads

OS:Node,
  {068382ba-55e2-4b1b-a06e-01a8deca24b0}, !- Handle
  {9e023e66-f4b9-4112-a395-6c5fe957a58a}, !- Name
  {2103f237-b16f-4e33-beb8-b668bee77ea2}, !- Inlet Port
  ;                                       !- Outlet Port

OS:Connection,
  {2103f237-b16f-4e33-beb8-b668bee77ea2}, !- Handle
  {249a56bb-73f2-4b24-836a-d4c63502c856}, !- Name
  {0f50dc52-46bd-42c7-a908-eecdf66603ce}, !- Source Object
  11,                                     !- Outlet Port
  {068382ba-55e2-4b1b-a06e-01a8deca24b0}, !- Target Object
  2;                                      !- Inlet Port

OS:PortList,
  {6c8093de-aede-4a0e-b27d-c02ac0071aaf}, !- Handle
  {d5d3461f-43dc-429f-abcd-408b3b04b8d3}, !- Name
  {0f50dc52-46bd-42c7-a908-eecdf66603ce}; !- HVAC Component

OS:PortList,
  {c4741f27-08a6-4f9e-9fa8-19ca6759bc18}, !- Handle
  {586ab3df-44bc-4286-acd6-69c3c9b681c8}, !- Name
  {0f50dc52-46bd-42c7-a908-eecdf66603ce}; !- HVAC Component

OS:Sizing:Zone,
  {6897a889-f8c7-4e23-8a92-b13206b71c5f}, !- Handle
  {0f50dc52-46bd-42c7-a908-eecdf66603ce}, !- Zone or ZoneList Name
  12.8,                                   !- Zone Cooling Design Supply Air Temperature {C}
  50,                                     !- Zone Heating Design Supply Air Temperature {C}
  0.0085,                                 !- Zone Cooling Design Supply Air Humidity Ratio {kg-H2O/kg-air}
  0.008,                                  !- Zone Heating Design Supply Air Humidity Ratio {kg-H2O/kg-air}
  ,                                       !- Zone Heating Sizing Factor
  ,                                       !- Zone Cooling Sizing Factor
  DesignDay,                              !- Cooling Design Air Flow Method
  ,                                       !- Cooling Design Air Flow Rate {m3/s}
  ,                                       !- Cooling Minimum Air Flow per Zone Floor Area {m3/s-m2}
  ,                                       !- Cooling Minimum Air Flow {m3/s}
  ,                                       !- Cooling Minimum Air Flow Fraction
  DesignDay,                              !- Heating Design Air Flow Method
  ,                                       !- Heating Design Air Flow Rate {m3/s}
  ,                                       !- Heating Maximum Air Flow per Zone Floor Area {m3/s-m2}
  ,                                       !- Heating Maximum Air Flow {m3/s}
  ,                                       !- Heating Maximum Air Flow Fraction
  ,                                       !- Design Zone Air Distribution Effectiveness in Cooling Mode
  ;                                       !- Design Zone Air Distribution Effectiveness in Heating Mode

OS:ZoneHVAC:EquipmentList,
  {6d14faf0-9fff-4c17-be02-5c55c36160b0}, !- Handle
  {778fe23a-2d05-47a1-889d-6988e5f6d5a0}, !- Name
  {0f50dc52-46bd-42c7-a908-eecdf66603ce}; !- Thermal Zone

OS:Space,
  {166ffe6d-4fe9-4df5-8f41-06f66b29a1bb}, !- Handle
  Corner_Class_2_Pod_2_ZN_1_FLR_2,        !- Name
  ,                                       !- Space Type Name
  ,                                       !- Default Construction Set Name
  ,                                       !- Default Schedule Set Name
  0,                                      !- Direction of Relative North {deg}
  0,                                      !- X Origin {m}
  54,                                     !- Y Origin {m}
  4,                                      !- Z Origin {m}
  ,                                       !- Building Story Name
  {0f50dc52-46bd-42c7-a908-eecdf66603ce}, !- Thermal Zone Name
  Yes,                                    !- Part of Total Floor Area
  ;                                       !- Design Specification Outdoor Air Object Name

OS:ThermostatSetpoint:DualSetpoint,
  {e06e4eb2-3e23-4e5f-82c2-a42bb82a0059}, !- Handle
  {dbc46c36-1209-44d1-abd3-1efabaa9504c}, !- Name
  {bb9f1690-e373-4f36-8fec-9a225bf0ddb9}, !- Heating Setpoint Temperature Schedule Name
  {bbbd317a-ee78-4631-85c2-ebea40734a61}; !- Cooling Setpoint Temperature Schedule Name

OS:Surface,
  {ecfa7fec-ead9-4cdc-9574-da6c9fef9b1a}, !- Handle
  Gym_ZN_1_FLR_1_Wall_2,                  !- Name
  Wall,                                   !- Surface Type
  ,                                       !- Construction Name
  {bcbef33c-4a73-4a48-bfd0-ce659186d949}, !- Space Name
  Surface,                                !- Outside Boundary Condition
  {507e678e-31c8-4993-8130-fad3220ca803}, !- Outside Boundary Condition Object
  NoSun,                                  !- Sun Exposure
  NoWind,                                 !- Wind Exposure
  ,                                       !- View Factor to Ground
  ,                                       !- Number of Vertices
  38, 0, 4,                               !- X,Y,Z Vertex 1 {m}
  38, 0, 0,                               !- X,Y,Z Vertex 2 {m}
  38, 52, 0,                              !- X,Y,Z Vertex 3 {m}
  38, 52, 4;                              !- X,Y,Z Vertex 4 {m}

OS:Construction,
  {ddbf75ae-a8bf-4865-912e-4b5bfe34def4}, !- Handle
  int-walls,                              !- Name
  {804bde13-90b8-4dc9-92ca-c4840d957276}, !- Surface Rendering Name
  {07c4ce28-50fb-4037-bce0-e7f65f9a0266}, !- Layer 1
  {07c4ce28-50fb-4037-bce0-e7f65f9a0266}; !- Layer 2

OS:Material,
  {07c4ce28-50fb-4037-bce0-e7f65f9a0266}, !- Handle
  1/2IN Gypsum,                           !- Name
  Smooth,                                 !- Roughness
  0.0127,                                 !- Thickness {m}
  0.16,                                   !- Conductivity {W/m-K}
  784.9,                                  !- Density {kg/m3}
  830,                                    !- Specific Heat {J/kg-K}
  0.9,                                    !- Thermal Absorptance
  0.92,                                   !- Solar Absorptance
  0.92;                                   !- Visible Absorptance

OS:ThermalZone,
  {968579ba-bd5c-49fe-b40b-34b78822a8aa}, !- Handle
  Gym_ZN_1_FLR_1 Thermal Zone,            !- Name
  1,                                      !- Multiplier
  ,                                       !- Ceiling Height {m}
  ,                                       !- Volume {m3}
  ,                                       !- Floor Area {m2}
  ,                                       !- Zone Inside Convection Algorithm
  ,                                       !- Zone Outside Convection Algorithm
  ,                                       !- Zone Conditioning Equipment List Name
  {1be5781c-5126-4b36-999e-7dc2a81df7d6}, !- Zone Air Inlet Port List
  {aa2e434e-60fa-47dd-8f73-894642603226}, !- Zone Air Exhaust Port List
  {5aeedba2-208b-4eb5-9921-5b8c28cd89ab}, !- Zone Air Node Name
  ,                                       !- Zone Return Air Node Name
  ,                                       !- Primary Daylighting Control Name
  ,                                       !- Fraction of Zone Controlled by Primary Daylighting Control
  ,                                       !- Secondary Daylighting Control Name
  ,                                       !- Fraction of Zone Controlled by Secondary Daylighting Control
  ,                                       !- Illuminance Map Name
  {1434aa70-8248-4ae0-8f81-ecb8a2f6e306}, !- Group Rendering Name
  {7e8648b2-b9cc-4247-ae2c-9804b53dc83d}, !- Thermostat Name
  No;                                     !- Use Ideal Air Loads

OS:Node,
  {84880577-4e1a-4f9b-918c-01d90a338025}, !- Handle
  {2fb61a4d-699b-4733-9c30-1657869688e1}, !- Name
  {5aeedba2-208b-4eb5-9921-5b8c28cd89ab}, !- Inlet Port
  ;                                       !- Outlet Port

OS:Connection,
  {5aeedba2-208b-4eb5-9921-5b8c28cd89ab}, !- Handle
  {11fa1e62-8c13-4d51-8be5-534ccdacb33a}, !- Name
  {968579ba-bd5c-49fe-b40b-34b78822a8aa}, !- Source Object
  11,                                     !- Outlet Port
  {84880577-4e1a-4f9b-918c-01d90a338025}, !- Target Object
  2;                                      !- Inlet Port

OS:PortList,
  {1be5781c-5126-4b36-999e-7dc2a81df7d6}, !- Handle
  {f88a9815-0f59-48cd-a54f-eac02144af0f}, !- Name
  {968579ba-bd5c-49fe-b40b-34b78822a8aa}; !- HVAC Component

OS:PortList,
  {aa2e434e-60fa-47dd-8f73-894642603226}, !- Handle
  {f2501902-79bf-4c08-a411-da4d9fab4ded}, !- Name
  {968579ba-bd5c-49fe-b40b-34b78822a8aa}; !- HVAC Component

OS:Sizing:Zone,
  {1e7adbe5-8762-4be1-bae1-101ddaf37d3e}, !- Handle
  {968579ba-bd5c-49fe-b40b-34b78822a8aa}, !- Zone or ZoneList Name
  12.8,                                   !- Zone Cooling Design Supply Air Temperature {C}
  50,                                     !- Zone Heating Design Supply Air Temperature {C}
  0.0085,                                 !- Zone Cooling Design Supply Air Humidity Ratio {kg-H2O/kg-air}
  0.008,                                  !- Zone Heating Design Supply Air Humidity Ratio {kg-H2O/kg-air}
  ,                                       !- Zone Heating Sizing Factor
  ,                                       !- Zone Cooling Sizing Factor
  DesignDay,                              !- Cooling Design Air Flow Method
  ,                                       !- Cooling Design Air Flow Rate {m3/s}