
OS:Version,
  {186b95a2-ee8b-4830-9a28-f393a2b3115f}, !- Handle
  1.6.0;                                  !- Version Identifier

OS:Rendering:Color,
  {d1e86687-6885-4070-81da-3a576f17ff5c}, !- Handle
  Rendering Color 1,                      !- Name
  230,                                    !- Rendering Red Value
  157,                                    !- Rendering Green Value
  120;                                    !- Rendering Blue Value

OS:Schedule:Ruleset,
  {8a273f29-9e00-4685-a53d-4e9734fa3bef}, ! Handle
  Office Bldg Light,                      ! Name
  {af9d9c36-2d5f-4871-8dda-ff179c7ff3db}, ! Schedule Type Limits Name
  {f4b4f1e1-6a43-44bd-a8f2-a74c513199be}, ! Default Day Schedule Name
  {c390a85c-d5e7-4c2d-8853-58583d31d4e3}, ! Summer Design Day Schedule Name
  {dd4723de-ece6-49f1-b48c-4ca52d8c8360}; ! Winter Design Day Schedule Name

OS:ScheduleTypeLimits,
  {af9d9c36-2d5f-4871-8dda-ff179c7ff3db}, ! Handle
  Fraction,                               ! Name
  0,                                      ! Lower Limit Value
  1,                                      ! Upper Limit Value
  CONTINUOUS;                             ! Numeric Type

OS:Schedule:Day,
  {f4b4f1e1-6a43-44bd-a8f2-a74c513199be}, ! Handle
  Office Bldg Light Default Schedule,     ! Name
  {af9d9c36-2d5f-4871-8dda-ff179c7ff3db}, ! Schedule Type Limits Name
  ,                                       ! Interpolate to Timestep
  5,                                      !- Hour 1
  0,                                      !- Minute 1
  0.05,                                   !- Value Until Time 1
  7,                                      !- Hour 2
  0,                                      !- Minute 2
  0.1,                                    !- Value Until Time 2
  8,                                      !- Hour 3
  0,                                      !- Minute 3
  0.3,                                    !- Value Until Time 3
  17,                                     !- Hour 4
  0,                                      !- Minute 4
  0.9,                                    !- Value Until Time 4
  18,                                     !- Hour 5
  0,                                      !- Minute 5
  0.7,                                    !- Value Until Time 5
  20,                                     !- Hour 6
  0,                                      !- Minute 6
  0.5,                                    !- Value Until Time 6
  22,                                     !- Hour 7
  0,                                      !- Minute 7
  0.3,                                    !- Value Until Time 7
  23,                                     !- Hour 8
  0,                                      !- Minute 8
  0.1,                                    !- Value Until Time 8
  24,                                     !- Hour 9
  0,                                      !- Minute 9
  0.05;                                   !- Value Until Time 9

OS:Schedule:Day,
  {c390a85c-d5e7-4c2d-8853-58583d31d4e3}, ! Handle
  Office Bldg Light Summer Design Day,    ! Name
  {af9d9c36-2d5f-4871-8dda-ff179c7ff3db}, ! Schedule Type Limits Name
  ,                                       ! Interpolate to Timestep
  24,                                     ! Hour 1
  0,                                      ! Minute 1
  1;                                      ! Value Until Time 1

OS:Schedule:Day,
  {dd4723de-ece6-49f1-b48c-4ca52d8c8360}, ! Handle
  Office Bldg Light Winter Design Day,    ! Name
  {af9d9c36-2d5f-4871-8dda-ff179c7ff3db}, ! Schedule Type Limits Name
  ,                                       ! Interpolate to Timestep
  24,                                     ! Hour 1
  0,                                      ! Minute 1
  0;                                      ! Value Until Time 1

OS:Schedule:Rule,
  {101bb6fc-d0fc-4dd5-b953-30be7362193e}, ! Handle
  Office Bldg Light Rule 1,               ! Name
  {8a273f29-9e00-4685-a53d-4e9734fa3bef}, ! Schedule Ruleset Name
  0,                                      ! Rule Order
  {cab9d70e-56fd-4a11-b93a-30526ba080c7}, ! Day Schedule Name
  Yes,                                    ! Apply Sunday
  No,                                     ! Apply Monday
  No,                                     ! Apply Tuesday
  No,                                     ! Apply Wednesday
  No,                                     ! Apply Thursday
  No,                                     ! Apply Friday
  No,                                     ! Apply Saturday
  ,                                       ! Apply Holiday
  DateRange,                              ! Date Specification Type
  1,                                      ! Start Month
  1,                                      ! Start Day
  12,                                     ! End Month
  31;                                     ! End Day

OS:Schedule:Day,
  {cab9d70e-56fd-4a11-b93a-30526ba080c7}, ! Handle
  Office Bldg Light Rule 1 Day Schedule,  ! Name
  {af9d9c36-2d5f-4871-8dda-ff179c7ff3db}, ! Schedule Type Limits Name
  ,                                       ! Interpolate to Timestep
  24,                                     ! Hour 1
  0,                                      ! Minute 1
  0.050000000000000003;                   ! Value Until Time 1

OS:Schedule:Rule,
  {e5799452-8d36-4739-a94b-184f22c15de0}, ! Handle
  Office Bldg Light Rule 2,               ! Name
  {8a273f29-9e00-4685-a53d-4e9734fa3bef}, ! Schedule Ruleset Name
  1,                                      ! Rule Order
  {fd34a36a-f6bf-4a3e-b174-248c7bf8388a}, ! Day Schedule Name
  No,                                     ! Apply Sunday
  No,                                     ! Apply Monday
  No,                                     ! Apply Tuesday
  No,                                     ! Apply Wednesday
  No,                                     ! Apply Thursday
  No,                                     ! Apply Friday
  Yes,                                    ! Apply Saturday
  ,                                       ! Apply Holiday
  DateRange,                              ! Date Specification Type
  1,                                      ! Start Month
  1,                                      ! Start Day
  12,                                     ! End Month
  31;                                     ! End Day

OS:Schedule:Day,
  {fd34a36a-f6bf-4a3e-b174-248c7bf8388a}, ! Handle
  Office Bldg Light Rule 2 Day Schedule,  ! Name
  {af9d9c36-2d5f-4871-8dda-ff179c7ff3db}, ! Schedule Type Limits Name
  ,                                       ! Interpolate to Timestep
  6,                                      ! Hour 1
  0,                                      ! Minute 1
  0.050000000000000003,                   ! Value Until Time 1
  8,                                      ! Hour 2
  0,                                      ! Minute 2
  0.10000000000000001,                    ! Value Until Time 2
  14,                                     ! Hour 3
  0,                                      ! Minute 3
  0.5,                                    ! Value Until Time 3
  17,                                     ! Hour 4
  0,                                      ! Minute 4
  0.14999999999999999,                    ! Value Until Time 4
  24,                                     ! Hour 5
  0,                                      ! Minute 5
  0.050000000000000003;                   ! Value Until Time 5

OS:Schedule:Ruleset,
  {be0538a4-3720-422e-85be-2e617795d558}, ! Handle
  Office Misc Occ,                        ! Name
  {af9d9c36-2d5f-4871-8dda-ff179c7ff3db}, ! Schedule Type Limits Name
  {a76a9245-12f3-412e-b0b5-34665289bf21}, ! Default Day Schedule Name
  {a40809b5-8df2-4f21-a9ee-da939f1e5f66}, ! Summer Design Day Schedule Name
  {3393a682-e262-4bec-b7cf-fd6eec115ebc}; ! Winter Design Day Schedule Name

OS:Schedule:Day,
  {a76a9245-12f3-412e-b0b5-34665289bf21}, ! Handle
  Office Bldg Occ Default Schedule 1,     ! Name
  {af9d9c36-2d5f-4871-8dda-ff179c7ff3db}, ! Schedule Type Limits Name
  ,                                       ! Interpolate to Timestep
  6,                                      !- Hour 1
  0,                                      !- Minute 1
  0,                                      !- Value Until Time 1
  7,                                      !- Hour 2
  0,                                      !- Minute 2
  0.100000001490116,                      !- Value Until Time 2
  8,                                      !- Hour 3
  0,                                      !- Minute 3
  0.200000002980232,                      !- Value Until Time 3
  20,                                     !- Hour 4
  0,                                      !- Minute 4
  0.400000005960464,                      !- Value Until Time 4
  22,                                     !- Hour 5
  0,                                      !- Minute 5
  0.100000001490116,                      !- Value Until Time 5
  24,                                     !- Hour 6
  0,                                      !- Minute 6
  0.0500000007450581;                     !- Value Until Time 6

OS:Schedule:Day,
  {a40809b5-8df2-4f21-a9ee-da939f1e5f66}, ! Handle
  Office Bldg Occ Summer Design Day 1,    ! Name
  {af9d9c36-2d5f-4871-8dda-ff179c7ff3db}, ! Schedule Type Limits Name
  ,                                       ! Interpolate to Timestep
  6,                                      ! Hour 1
  0,                                      ! Minute 1
  0,                                      ! Value Until Time 1
  22,                                     ! Hour 2
  0,                                      ! Minute 2
  1,                                      ! Value Until Time 2
  24,                                     ! Hour 3
  0,                                      ! Minute 3
  0.050000000000000003;                   ! Value Until Time 3

OS:Schedule:Day,
  {3393a682-e262-4bec-b7cf-fd6eec115ebc}, ! Handle
  Office Bldg Occ Winter Design Day 1,    ! Name
  {af9d9c36-2d5f-4871-8dda-ff179c7ff3db}, ! Schedule Type Limits Name
  ,                                       ! Interpolate to Timestep
  24,                                     ! Hour 1
  0,                                      ! Minute 1
  0;                                      ! Value Until Time 1

OS:Schedule:Rule,
  {3ca2483c-714c-4d0d-8b7c-5f4a9c2b67c5}, ! Handle
  Office Misc Occ Rule 1,                 ! Name
  {be0538a4-3720-422e-85be-2e617795d558}, ! Schedule Ruleset Name
  0,                                      ! Rule Order
  {f56ad6ba-e3fe-4664-91d5-6e3a524b6815}, ! Day Schedule Name
  Yes,                                    ! Apply Sunday
  No,                                     ! Apply Monday
  No,                                     ! Apply Tuesday
  No,                                     ! Apply Wednesday
  No,                                     ! Apply Thursday
  No,                                     ! Apply Friday
  No,                                     ! Apply Saturday
  ,                                       ! Apply Holiday
  DateRange,                              ! Date Specification Type
  1,                                      ! Start Month
  1,                                      ! Start Day
  12,                                     ! End Month
  31;                                     ! End Day

OS:Schedule:Day,
  {f56ad6ba-e3fe-4664-91d5-6e3a524b6815}, ! Handle
  Office Bldg Occ Rule 1 Day Schedule 1,  ! Name
  {af9d9c36-2d5f-4871-8dda-ff179c7ff3db}, ! Schedule Type Limits Name
  ,                                       ! Interpolate to Timestep
  24,                                     ! Hour 1
  0,                                      ! Minute 1
  0;                                      ! Value Until Time 1

OS:Schedule:Rule,
  {05c99778-2bec-4bcf-b23a-afcb3628f061}, ! Handle
  Office Misc Occ Rule 2,                 ! Name
  {be0538a4-3720-422e-85be-2e617795d558}, ! Schedule Ruleset Name
  1,                                      ! Rule Order
  {50794c08-f7a3-4592-ab7e-021599b65e8f}, ! Day Schedule Name
  No,                                     ! Apply Sunday
  No,                                     ! Apply Monday
  No,                                     ! Apply Tuesday
  No,                                     ! Apply Wednesday
  No,                                     ! Apply Thursday
  No,                                     ! Apply Friday
  Yes,                                    ! Apply Saturday
  ,                                       ! Apply Holiday
  DateRange,                              ! Date Specification Type
  1,                                      ! Start Month
  1,                                      ! Start Day
  12,                                     ! End Month
  31;                                     ! End Day

OS:Schedule:Day,
  {50794c08-f7a3-4592-ab7e-021599b65e8f}, ! Handle
  Office Bldg Occ Rule 2 Day Schedule 1,  ! Name
  {af9d9c36-2d5f-4871-8dda-ff179c7ff3db}, ! Schedule Type Limits Name
  ,                                       ! Interpolate to Timestep
  6,                                      !- Hour 1
  0,                                      !- Minute 1
  0,                                      !- Value Until Time 1
  8,                                      !- Hour 2
  0,                                      !- Minute 2
  0.100000001490116,                      !- Value Until Time 2
  14,                                     !- Hour 3
  0,                                      !- Minute 3
  0.25,                                   !- Value Until Time 3
  17,                                     !- Hour 4
  0,                                      !- Minute 4
  0.100000001490116,                      !- Value Until Time 4
  24,                                     !- Hour 5
  0,                                      !- Minute 5
  0;                                      !- Value Until Time 5

OS:ScheduleTypeLimits,
  {65bf6a03-1758-4903-8383-db583a09d8f8}, !- Handle
  ActivityLevel,                          !- Name
  0,                                      !- Lower Limit Value {BasedOnField A4}
  ,                                       !- Upper Limit Value {BasedOnField A4}
  Continuous,                             !- Numeric Type
  ActivityLevel;                          !- Unit Type

OS:Schedule:Ruleset,
  {5071fc8f-2a43-420e-b853-89de3fd548e0}, ! Handle
  Office Infil Quarter On,                ! Name
  {af9d9c36-2d5f-4871-8dda-ff179c7ff3db}, ! Schedule Type Limits Name
  {2fb80237-329a-4845-a30d-3df8432f42db}, ! Default Day Schedule Name
  {5d5af512-8749-48a6-8cab-1e94e2186c8a}, ! Summer Design Day Schedule Name
  {2ad01453-6707-4358-a39d-e8f66d6a2d27}; ! Winter Design Day Schedule Name

OS:Schedule:Day,
  {2fb80237-329a-4845-a30d-3df8432f42db}, ! Handle
  Office Infil Quarter On Default Schedule, ! Name
  {af9d9c36-2d5f-4871-8dda-ff179c7ff3db}, ! Schedule Type Limits Name
  ,                                       ! Interpolate to Timestep
  6,                                      !- Hour 1
  0,                                      !- Minute 1
  1,                                      !- Value Until Time 1
  22,                                     !- Hour 2
  0,                                      !- Minute 2
  0.25,                                   !- Value Until Time 2
  24,                                     !- Hour 3
  0,                                      !- Minute 3
  1;                                      !- Value Until Time 3

OS:Schedule:Day,
  {5d5af512-8749-48a6-8cab-1e94e2186c8a}, ! Handle
  Office Infil Quarter On Summer Design Day, ! Name
  {af9d9c36-2d5f-4871-8dda-ff179c7ff3db}, ! Schedule Type Limits Name
  ,                                       ! Interpolate to Timestep
  6,                                      ! Hour 1
  0,                                      ! Minute 1
  1,                                      ! Value Until Time 1
  22,                                     ! Hour 2
  0,                                      ! Minute 2
  0.25,                                   ! Value Until Time 2
  24,                                     ! Hour 3
  0,                                      ! Minute 3
  1;                                      ! Value Until Time 3

OS:Schedule:Day,
  {2ad01453-6707-4358-a39d-e8f66d6a2d27}, ! Handle
  Office Infil Quarter On Winter Design Day, ! Name
  {af9d9c36-2d5f-4871-8dda-ff179c7ff3db}, ! Schedule Type Limits Name
  ,                                       ! Interpolate to Timestep
  6,                                      ! Hour 1
  0,                                      ! Minute 1
  1,                                      ! Value Until Time 1
  18,                                     ! Hour 2
  0,                                      ! Minute 2
  0.25,                                   ! Value Until Time 2
  24,                                     ! Hour 3
  0,                                      ! Minute 3
  1;                                      ! Value Until Time 3

OS:Schedule:Rule,
  {4574f359-1b04-4a98-ab13-df5e80f66af0}, ! Handle
  Office Infil Quarter On Rule 1,         ! Name
  {5071fc8f-2a43-420e-b853-89de3fd548e0}, ! Schedule Ruleset Name
  0,                                      ! Rule Order
  {3790040e-9ea2-4dc8-aa07-8c3be9362217}, ! Day Schedule Name
  Yes,                                    ! Apply Sunday
  No,                                     ! Apply Monday
  No,                                     ! Apply Tuesday
  No,                                     ! Apply Wednesday
  No,                                     ! Apply Thursday
  No,                                     ! Apply Friday
  No,                                     ! Apply Saturday
  ,                                       ! Apply Holiday
  DateRange,                              ! Date Specification Type
  1,                                      ! Start Month
  1,                                      ! Start Day
  12,                                     ! End Month
  31;                                     ! End Day

OS:Schedule:Day,
  {3790040e-9ea2-4dc8-aa07-8c3be9362217}, ! Handle
  Office Infil Quarter On Rule 1 Day Schedule, ! Name
  {af9d9c36-2d5f-4871-8dda-ff179c7ff3db}, ! Schedule Type Limits Name
  ,                                       ! Interpolate to Timestep
  24,                                     ! Hour 1
  0,                                      ! Minute 1
  1;                                      ! Value Until Time 1

OS:Schedule:Rule,
  {dffe30c1-3c56-49c5-a8f7-647f7d37a109}, ! Handle
  Office Infil Quarter On Rule 2,         ! Name
  {5071fc8f-2a43-420e-b853-89de3fd548e0}, ! Schedule Ruleset Name
  1,                                      ! Rule Order
  {f8525cc5-5d39-46fb-83d8-d6d96f5d4e03}, ! Day Schedule Name
  No,                                     ! Apply Sunday
  No,                                     ! Apply Monday
  No,                                     ! Apply Tuesday
  No,                                     ! Apply Wednesday
  No,                                     ! Apply Thursday
  No,                                     ! Apply Friday
  Yes,                                    ! Apply Saturday
  ,                                       ! Apply Holiday
  DateRange,                              ! Date Specification Type
  1,                                      ! Start Month
  1,                                      ! Start Day
  12,                                     ! End Month
  31;                                     ! End Day

OS:Schedule:Day,
  {f8525cc5-5d39-46fb-83d8-d6d96f5d4e03}, ! Handle
  Office Infil Quarter On Rule 2 Day Schedule, ! Name
  {af9d9c36-2d5f-4871-8dda-ff179c7ff3db}, ! Schedule Type Limits Name
  ,                                       ! Interpolate to Timestep
  6,                                      ! Hour 1
  0,                                      ! Minute 1
  1,                                      ! Value Until Time 1
  18,                                     ! Hour 2
  0,                                      ! Minute 2
  0.25,                                   ! Value Until Time 2
  24,                                     ! Hour 3
  0,                                      ! Minute 3
  1;                                      ! Value Until Time 3

OS:Schedule:Ruleset,
  {d4102340-9627-4371-b8f6-a3790caa5373}, ! Handle
  Office Bldg Equip,                      ! Name
  {af9d9c36-2d5f-4871-8dda-ff179c7ff3db}, ! Schedule Type Limits Name
  {977dd248-68d1-44ba-89cd-75118b7f5432}, ! Default Day Schedule Name
  {c29d5462-6e30-488d-a879-41ed4219dda7}, ! Summer Design Day Schedule Name
  {d3bffa7b-808a-4d48-99c4-616283b390aa}; ! Winter Design Day Schedule Name

OS:Schedule:Day,
  {977dd248-68d1-44ba-89cd-75118b7f5432}, ! Handle
  Office Bldg Equip Default Schedule,     ! Name
  {af9d9c36-2d5f-4871-8dda-ff179c7ff3db}, ! Schedule Type Limits Name
  ,                                       ! Interpolate to Timestep
  8,                                      !- Hour 1
  0,                                      !- Minute 1
  0.4,                                    !- Value Until Time 1
  12,                                     !- Hour 2
  0,                                      !- Minute 2
  0.9,                                    !- Value Until Time 2
  13,                                     !- Hour 3
  0,                                      !- Minute 3
  0.8,                                    !- Value Until Time 3
  17,                                     !- Hour 4
  0,                                      !- Minute 4
  0.9,                                    !- Value Until Time 4
  18,                                     !- Hour 5
  0,                                      !- Minute 5
  0.8,                                    !- Value Until Time 5
  20,                                     !- Hour 6
  0,                                      !- Minute 6
  0.6,                                    !- Value Until Time 6
  22,                                     !- Hour 7
  0,                                      !- Minute 7
  0.5,                                    !- Value Until Time 7
  24,                                     !- Hour 8
  0,                                      !- Minute 8
  0.4;                                    !- Value Until Time 8

OS:Schedule:Day,
  {c29d5462-6e30-488d-a879-41ed4219dda7}, ! Handle
  Office Bldg Equip Summer Design Day,    ! Name
  {af9d9c36-2d5f-4871-8dda-ff179c7ff3db}, ! Schedule Type Limits Name
  ,                                       ! Interpolate to Timestep
  24,                                     ! Hour 1
  0,                                      ! Minute 1
  1;                                      ! Value Until Time 1

OS:Schedule:Day,
  {d3bffa7b-808a-4d48-99c4-616283b390aa}, ! Handle
  Office Bldg Equip Winter Design Day,    ! Name
  {af9d9c36-2d5f-4871-8dda-ff179c7ff3db}, ! Schedule Type Limits Name
  ,                                       ! Interpolate to Timestep
  24,                                     ! Hour 1
  0,                                      ! Minute 1
  0;                                      ! Value Until Time 1

OS:Schedule:Rule,
  {bce5d209-6925-4d7c-8dc5-3f357b764d6c}, ! Handle
  Office Bldg Equip Rule 1,               ! Name
  {d4102340-9627-4371-b8f6-a3790caa5373}, ! Schedule Ruleset Name
  0,                                      ! Rule Order
  {c875931d-86d6-4764-8e77-22d1cb7198ce}, ! Day Schedule Name
  Yes,                                    ! Apply Sunday
  No,                                     ! Apply Monday
  No,                                     ! Apply Tuesday
  No,                                     ! Apply Wednesday
  No,                                     ! Apply Thursday
  No,                                     ! Apply Friday
  No,                                     ! Apply Saturday
  ,                                       ! Apply Holiday
  DateRange,                              ! Date Specification Type
  1,                                      ! Start Month
  1,                                      ! Start Day
  12,                                     ! End Month
  31;                                     ! End Day

OS:Schedule:Day,
  {c875931d-86d6-4764-8e77-22d1cb7198ce}, ! Handle
  Office Bldg Equip Rule 1 Day Schedule,  ! Name
  {af9d9c36-2d5f-4871-8dda-ff179c7ff3db}, ! Schedule Type Limits Name
  ,                                       ! Interpolate to Timestep
  24,                                     ! Hour 1
  0,                                      ! Minute 1
  0.29999999999999999;                    ! Value Until Time 1

OS:Schedule:Rule,
  {1949d113-007e-43de-9be2-ba191485735a}, ! Handle
  Office Bldg Equip Rule 2,               ! Name
  {d4102340-9627-4371-b8f6-a3790caa5373}, ! Schedule Ruleset Name
  1,                                      ! Rule Order
  {c7512454-4834-46fa-a2d6-7cc7e929e54c}, ! Day Schedule Name
  No,                                     ! Apply Sunday
  No,                                     ! Apply Monday
  No,                                     ! Apply Tuesday
  No,                                     ! Apply Wednesday
  No,                                     ! Apply Thursday
  No,                                     ! Apply Friday
  Yes,                                    ! Apply Saturday
  ,                                       ! Apply Holiday
  DateRange,                              ! Date Specification Type
  1,                                      ! Start Month
  1,                                      ! Start Day
  12,                                     ! End Month
  31;                                     ! End Day

OS:Schedule:Day,
  {c7512454-4834-46fa-a2d6-7cc7e929e54c}, ! Handle
  Office Bldg Equip Rule 2 Day Schedule,  ! Name
  {af9d9c36-2d5f-4871-8dda-ff179c7ff3db}, ! Schedule Type Limits Name
  ,                                       ! Interpolate to Timestep
  6,                                      ! Hour 1
  0,                                      ! Minute 1
  0.29999999999999999,                    ! Value Until Time 1
  8,                                      ! Hour 2
  0,                                      ! Minute 2
  0.40000000000000002,                    ! Value Until Time 2
  14,                                     ! Hour 3
  0,                                      ! Minute 3
  0.5,                                    ! Value Until Time 3
  17,                                     ! Hour 4
  0,                                      ! Minute 4
  0.34999999999999998,                    ! Value Until Time 4
  24,                                     ! Hour 5
  0,                                      ! Minute 5
  0.29999999999999999;                    ! Value Until Time 5

OS:ThermostatSetpoint:DualSetpoint,
  {57716514-0d5c-4f76-8108-73a8ef55c74a}, !- Handle
  189.1-2009 - Office - BreakRoom - CZ1-3 Thermostat, !- Name
  {de733bb4-ab71-44d2-ab3a-a9b7c2a54774}, !- Heating Setpoint Temperature Schedule Name
  {e9bd9cb4-1124-4ccf-bf18-c5ad994faa55}; !- Cooling Setpoint Temperature Schedule Name

OS:Schedule:Ruleset,
  {de733bb4-ab71-44d2-ab3a-a9b7c2a54774}, ! Handle
  Medium Office HtgSetp,                  ! Name
  {12c61fd1-4fe2-4b95-9432-26b57b327856}, ! Schedule Type Limits Name
  {9b279567-fd7d-4e61-887c-70dc28a870a8}, ! Default Day Schedule Name
  {12714e17-5b17-4314-81e6-d4b74d680da0}, ! Summer Design Day Schedule Name
  {f9920323-552d-4d1f-bda1-6b0c461a87ca}; ! Winter Design Day Schedule Name

OS:ScheduleTypeLimits,
  {12c61fd1-4fe2-4b95-9432-26b57b327856}, !- Handle
  Temperature 36,                         !- Name
  ,                                       !- Lower Limit Value {BasedOnField A4}
  ,                                       !- Upper Limit Value {BasedOnField A4}
  Continuous,                             !- Numeric Type
  Temperature;                            !- Unit Type

OS:Schedule:Day,
  {9b279567-fd7d-4e61-887c-70dc28a870a8}, ! Handle
  Medium Office HtgSetp Default Schedule, ! Name
  {12c61fd1-4fe2-4b95-9432-26b57b327856}, ! Schedule Type Limits Name
  ,                                       ! Interpolate to Timestep
  6,                                      !- Hour 1
  0,                                      !- Minute 1
  15.6,                                   !- Value Until Time 1
  22,                                     !- Hour 2
  0,                                      !- Minute 2
  21,                                     !- Value Until Time 2
  24,                                     !- Hour 3
  0,                                      !- Minute 3
  15.6;                                   !- Value Until Time 3

OS:Schedule:Day,
  {12714e17-5b17-4314-81e6-d4b74d680da0}, ! Handle
  Medium Office HtgSetp Summer Design Day, ! Name
  {12c61fd1-4fe2-4b95-9432-26b57b327856}, ! Schedule Type Limits Name
  ,                                       ! Interpolate to Timestep
  24,                                     ! Hour 1
  0,                                      ! Minute 1
  15.6;                                   ! Value Until Time 1

OS:Schedule:Day,
  {f9920323-552d-4d1f-bda1-6b0c461a87ca}, ! Handle
  Medium Office HtgSetp Winter Design Day, ! Name
  {12c61fd1-4fe2-4b95-9432-26b57b327856}, ! Schedule Type Limits Name
  ,                                       ! Interpolate to Timestep
  24,                                     ! Hour 1
  0,                                      ! Minute 1
  21;                                     ! Value Until Time 1

OS:Schedule:Rule,
  {868baa5f-da01-445a-994f-6c6787547ea5}, ! Handle
  Medium Office HtgSetp Rule 1,           ! Name
  {de733bb4-ab71-44d2-ab3a-a9b7c2a54774}, ! Schedule Ruleset Name
  0,                                      ! Rule Order
  {cac0b919-4885-4c58-9a65-b12cf242f6c9}, ! Day Schedule Name
  Yes,                                    ! Apply Sunday
  No,                                     ! Apply Monday