
OS:Version,
  {6a3e190e-e082-4504-a7d7-b660190ac78a}, !- Handle
  1.6.0;                                  !- Version Identifier

OS:ClimateZones,
  {135edfab-17e7-40db-a436-27d385a8cd6d}, !- Handle
  ,                                       !- Active Institution
  ,                                       !- Active Year
  ASHRAE,                                 !- Climate Zone Institution Name 1
  ANSI/ASHRAE Standard 169,               !- Climate Zone Document Name 1
  2006,                                   !- Climate Zone Document Year 1
  ,                                       !- Climate Zone Value 1
  CEC,                                    !- Climate Zone Institution Name 2
  California Climate Zone Descriptions,   !- Climate Zone Document Name 2
  1995,                                   !- Climate Zone Document Year 2
  ;                                       !- Climate Zone Value 2

OS:YearDescription,
  {513d8dda-86cb-442a-b01c-1f7f0e0ac70e}; !- Handle

OS:RadianceParameters,
  {270a96f1-3c86-4b75-a667-cdf22790e2c8}, !- Handle
  1,                                      !- Accumulated Rays per Record
  0,                                      !- Direct Threshold
  1,                                      !- Direct Certainty
  1,                                      !- Direct Jitter
  1,                                      !- Direct Pretest
  6,                                      !- Ambient Bounces VMX
  2,                                      !- Ambient Bounces DMX
  4050,                                   !- Ambient Divisions VMX
  512,                                    !- Ambient Divisions DMX
  256,                                    !- Ambient Supersamples
  0.001,                                  !- Limit Weight VMX
  0.001,                                  !- Limit Weight DMX
  500,                                    !- Klems Sampling Density
  146;                                    !- Sky Discretization Resolution

OS:SimulationControl,
  {2c487a4c-bac9-4ac5-b669-1e49d9da7c2b}; !- Handle

OS:Sizing:Parameters,
  {dde5af6f-7923-4600-a28a-7556673a0266}, !- Handle
  1.25,                                   !- Heating Sizing Factor
  1.15;                                   !- Cooling Sizing Factor

OS:ProgramControl,
  {05027a99-f2b3-4aeb-afc6-1425fbb4371d}; !- Handle

OS:Timestep,
  {4ebc9f1e-4707-402e-9844-67eb1ffbd522}, !- Handle
  6;                                      !- Number of Timesteps per Hour

OS:OutputControl:ReportingTolerances,
  {65797aa2-06a9-45fe-b69d-bc6e060399d3}; !- Handle

OS:ConvergenceLimits,
  {9fc11aba-8822-4f3d-970c-46391ba4040d}; !- Handle

OS:ShadowCalculation,
  {ca758bea-4416-4626-9bba-3d8795c79bd6}, !- Handle
  7,                                      !- Calculation Frequency
  15000;                                  !- Maximum Figures in Shadow Overlap Calculations

OS:SurfaceConvectionAlgorithm:Inside,
  {aaabfc36-718a-4ab0-b622-f186ebb45230}, !- Handle
  TARP;                                   !- Algorithm

OS:SurfaceConvectionAlgorithm:Outside,
  {9a0a9f6f-4bbd-4b12-a121-9492a1fcd7d6}, !- Handle
  DOE-2;                                  !- Algorithm

OS:HeatBalanceAlgorithm,
  {9d93e563-e1e0-46d7-9e39-d1c8aceb7212}, !- Handle
  ConductionTransferFunction,             !- Algorithm
  200;                                    !- Surface Temperature Upper Limit {F}

OS:ZoneAirHeatBalanceAlgorithm,
  {8520d93e-310f-4696-9bcd-36228bfdd743}, !- Handle
  AnalyticalSolution;                     !- Algorithm

OS:ZoneAirContaminantBalance,
  {eb5fc3ae-fb22-4160-8fcb-3e3b22b000d3}; !- Handle

OS:ZoneCapacitanceMultiplier:ResearchSpecial,
  {4020ce4f-5a7a-4849-8028-8305d7b751b1}, !- Handle
  ,                                       !- Temperature Capacity Multiplier
  ,                                       !- Humidity Capacity Multiplier
  ;                                       !- Carbon Dioxide Capacity Multiplier

OS:RunPeriod,
  {28df894d-6af9-4fb8-8f56-df1753344aa3}, !- Handle
  Run Period 1,                           !- Name
  1,                                      !- Begin Month
  1,                                      !- Begin Day of Month
  12,                                     !- End Month
  31,                                     !- End Day of Month
  ,                                       !- Use Weather File Holidays and Special Days
  ,                                       !- Use Weather File Daylight Saving Period
  ,                                       !- Apply Weekend Holiday Rule
  ,                                       !- Use Weather File Rain Indicators
  ,                                       !- Use Weather File Snow Indicators
  ;                                       !- Number of Times Runperiod to be Repeated

OS:Building,
  {bf305633-c5a1-4881-9edf-ca5e1a8e1274}, !- Handle
  Building 1,                             !- Name
  ,                                       !- Building Sector Type
  ,                                       !- North Axis {deg}
  ,                                       !- Nominal Floor to Floor Height {m}
  {cb8ddd31-3106-41a6-9fe6-426935699dff}, !- Space Type Name
  {b7f1cd84-9f15-497b-bc07-1f3ed67e9143}, !- Default Construction Set Name
  ;                                       !- Default Schedule Set Name

OS:SpaceType,
  {d5fd9f26-fe84-4917-a95b-20dbacb1086e}, !- Handle
  90.1-2007 - Retail - Back_Space,        !- Name
  ,                                       !- Default Construction Set Name
  {ebebc739-4e0e-4894-8841-e667b03ecafe}, !- Default Schedule Set Name
  {e2f9c027-011e-4cc0-90a4-5bdbb51fc885}, !- Group Rendering Name
  {a5c11596-a9d8-4215-8eea-3ec5ca2a5fef}, !- Design Specification Outdoor Air Object Name
  Retail,                                 !- Standards Building Type
  Back_Space;                             !- Standards Space Type

OS:Rendering:Color,
  {e2f9c027-011e-4cc0-90a4-5bdbb51fc885}, !- Handle
  Rendering Color 1,                      !- Name
  120,                                    !- Rendering Red Value
  149,                                    !- Rendering Green Value
  230;                                    !- Rendering Blue Value

OS:DefaultScheduleSet,
  {ebebc739-4e0e-4894-8841-e667b03ecafe}, !- Handle
  90.1-2007 - Retail - Back_Space Schedule Set, !- Name
  ,                                       !- Hours of Operation Schedule Name
  {fdd82b0b-71e3-4e6b-94ae-a803bd1057e4}, !- Number of People Schedule Name
  {e6ac9273-d5f0-4e44-b785-2f76a7b956d8}, !- People Activity Level Schedule Name
  {19add4f1-460c-4e47-9b8c-412bda661370}, !- Lighting Schedule Name
  {733286fd-c39f-4ec5-80ca-641ecd66e94c}, !- Electric Equipment Schedule Name
  ,                                       !- Gas Equipment Schedule Name
  ,                                       !- Hot Water Equipment Schedule Name
  {687b041f-0dcb-48ae-9c02-c767b1b4529c}, !- Infiltration Schedule Name
  ,                                       !- Steam Equipment Schedule Name
  ;                                       !- Other Equipment Schedule Name

OS:Lights:Definition,
  {ce0323de-6a52-4f0b-b3d8-f3b1211b5af1}, !- Handle
  90.1-2007 - Retail - Back_Space Lights Definition, !- Name
  Watts/Area,                             !- Design Level Calculation Method
  ,                                       !- Lighting Level {W}
  8.61112833336778,                       !- Watts per Space Floor Area {W/m2}
  ;                                       !- Watts per Person {W/person}

OS:Lights,
  {42cb8269-62e3-470e-8bc6-93259aea6d0d}, !- Handle
  90.1-2007 - Retail - Back_Space Lights, !- Name
  {ce0323de-6a52-4f0b-b3d8-f3b1211b5af1}, !- Lights Definition Name
  {d5fd9f26-fe84-4917-a95b-20dbacb1086e}; !- Space or SpaceType Name

OS:Schedule:Ruleset,
  {19add4f1-460c-4e47-9b8c-412bda661370}, ! Handle
  Retail Bldg Light,                      ! Name
  {420e2add-007f-4755-9dbd-4fcbb09c3045}, ! Schedule Type Limits Name
  {ae8a85d3-0d56-4da7-b2ee-0df4c6729441}, ! Default Day Schedule Name
  {2aec24b9-2211-4245-aabc-bc1ebd25e06d}, ! Summer Design Day Schedule Name
  {4207ca48-2327-400c-868d-35885d33582c}; ! Winter Design Day Schedule Name

OS:ScheduleTypeLimits,
  {420e2add-007f-4755-9dbd-4fcbb09c3045}, ! Handle
  Fraction,                               ! Name
  0,                                      ! Lower Limit Value
  1,                                      ! Upper Limit Value
  CONTINUOUS;                             ! Numeric Type

OS:Schedule:Day,
  {ae8a85d3-0d56-4da7-b2ee-0df4c6729441}, ! Handle
  Retail Bldg Light Default Schedule,     ! Name
  {420e2add-007f-4755-9dbd-4fcbb09c3045}, ! Schedule Type Limits Name
  ,                                       ! Interpolate to Timestep
  7,                                      !- Hour 1
  0,                                      !- Minute 1
  0.05,                                   !- Value Until Time 1
  8,                                      !- Hour 2
  0,                                      !- Minute 2
  0.2,                                    !- Value Until Time 2
  9,                                      !- Hour 3
  0,                                      !- Minute 3
  0.5,                                    !- Value Until Time 3
  18,                                     !- Hour 4
  0,                                      !- Minute 4
  0.9,                                    !- Value Until Time 4
  20,                                     !- Hour 5
  0,                                      !- Minute 5
  0.6,                                    !- Value Until Time 5
  21,                                     !- Hour 6
  0,                                      !- Minute 6
  0.5,                                    !- Value Until Time 6
  22,                                     !- Hour 7
  0,                                      !- Minute 7
  0.2,                                    !- Value Until Time 7
  24,                                     !- Hour 8
  0,                                      !- Minute 8
  0.05;                                   !- Value Until Time 8

OS:Schedule:Day,
  {2aec24b9-2211-4245-aabc-bc1ebd25e06d}, ! Handle
  Retail Bldg Light Summer Design Day,    ! Name
  {420e2add-007f-4755-9dbd-4fcbb09c3045}, ! Schedule Type Limits Name
  ,                                       ! Interpolate to Timestep
  24,                                     ! Hour 1
  0,                                      ! Minute 1
  1;                                      ! Value Until Time 1

OS:Schedule:Day,
  {4207ca48-2327-400c-868d-35885d33582c}, ! Handle
  Retail Bldg Light Winter Design Day,    ! Name
  {420e2add-007f-4755-9dbd-4fcbb09c3045}, ! Schedule Type Limits Name
  ,                                       ! Interpolate to Timestep
  24,                                     ! Hour 1
  0,                                      ! Minute 1
  0;                                      ! Value Until Time 1

OS:Schedule:Rule,
  {132d2589-9dec-425e-8da4-cd51033c78c0}, ! Handle
  Retail Bldg Light Rule 1,               ! Name
  {19add4f1-460c-4e47-9b8c-412bda661370}, ! Schedule Ruleset Name
  0,                                      ! Rule Order
  {2fba3b21-953a-4479-8a33-4c925e5279e7}, ! Day Schedule Name
  Yes,                                    ! Apply Sunday
  No,                                     ! Apply Monday
  No,                                     ! Apply Tuesday
  No,                                     ! Apply Wednesday
  No,                                     ! Apply Thursday
  No,                                     ! Apply Friday
  No,                                     ! Apply Saturday
  ,                                       ! Apply Holiday
  DateRange,                              ! Date Specification Type
  1,                                      ! Start Month
  1,                                      ! Start Day
  12,                                     ! End Month
  31;                                     ! End Day

OS:Schedule:Day,
  {2fba3b21-953a-4479-8a33-4c925e5279e7}, ! Handle
  Retail Bldg Light Rule 1 Day Schedule,  ! Name
  {420e2add-007f-4755-9dbd-4fcbb09c3045}, ! Schedule Type Limits Name
  ,                                       ! Interpolate to Timestep
  8,                                      ! Hour 1
  0,                                      ! Minute 1
  0.050000000000000003,                   ! Value Until Time 1
  10,                                     ! Hour 2
  0,                                      ! Minute 2
  0.10000000000000001,                    ! Value Until Time 2
  12,                                     ! Hour 3
  0,                                      ! Minute 3
  0.40000000000000002,                    ! Value Until Time 3
  17,                                     ! Hour 4
  0,                                      ! Minute 4
  0.59999999999999998,                    ! Value Until Time 4
  18,                                     ! Hour 5
  0,                                      ! Minute 5
  0.40000000000000002,                    ! Value Until Time 5
  19,                                     ! Hour 6
  0,                                      ! Minute 6
  0.20000000000000001,                    ! Value Until Time 6
  24,                                     ! Hour 7
  0,                                      ! Minute 7
  0.050000000000000003;                   ! Value Until Time 7

OS:Schedule:Rule,
  {9ebc7366-e757-47c0-b141-8b56bc964417}, ! Handle
  Retail Bldg Light Rule 2,               ! Name
  {19add4f1-460c-4e47-9b8c-412bda661370}, ! Schedule Ruleset Name
  1,                                      ! Rule Order
  {81cddf35-ef40-4ec1-800b-18c5dd5c9f53}, ! Day Schedule Name
  No,                                     ! Apply Sunday
  No,                                     ! Apply Monday
  No,                                     ! Apply Tuesday
  No,                                     ! Apply Wednesday
  No,                                     ! Apply Thursday
  No,                                     ! Apply Friday
  Yes,                                    ! Apply Saturday
  ,                                       ! Apply Holiday
  DateRange,                              ! Date Specification Type
  1,                                      ! Start Month
  1,                                      ! Start Day
  12,                                     ! End Month
  31;                                     ! End Day

OS:Schedule:Day,
  {81cddf35-ef40-4ec1-800b-18c5dd5c9f53}, ! Handle
  Retail Bldg Light Rule 2 Day Schedule,  ! Name
  {420e2add-007f-4755-9dbd-4fcbb09c3045}, ! Schedule Type Limits Name
  ,                                       ! Interpolate to Timestep
  7,                                      ! Hour 1
  0,                                      ! Minute 1
  0.050000000000000003,                   ! Value Until Time 1
  8,                                      ! Hour 2
  0,                                      ! Minute 2
  0.10000000000000001,                    ! Value Until Time 2
  9,                                      ! Hour 3
  0,                                      ! Minute 3
  0.29999999999999999,                    ! Value Until Time 3
  10,                                     ! Hour 4
  0,                                      ! Minute 4
  0.59999999999999998,                    ! Value Until Time 4
  18,                                     ! Hour 5
  0,                                      ! Minute 5
  0.90000000000000002,                    ! Value Until Time 5
  19,                                     ! Hour 6
  0,                                      ! Minute 6
  0.5,                                    ! Value Until Time 6
  21,                                     ! Hour 7
  0,                                      ! Minute 7
  0.29999999999999999,                    ! Value Until Time 7
  22,                                     ! Hour 8
  0,                                      ! Minute 8
  0.10000000000000001,                    ! Value Until Time 8
  24,                                     ! Hour 9
  0,                                      ! Minute 9
  0.050000000000000003;                   ! Value Until Time 9

OS:DesignSpecification:OutdoorAir,
  {a5c11596-a9d8-4215-8eea-3ec5ca2a5fef}, !- Handle
  90.1-2007 - Retail - Back_Space Ventilation, !- Name
  Sum,                                    !- Outdoor Air Method
  ,                                       !- Outdoor Air Flow per Person {m3/s-person}
  0.0006096,                              !- Outdoor Air Flow per Floor Area {m3/s-m2}
  ,                                       !- Outdoor Air Flow Rate {m3/s}
  ,                                       !- Outdoor Air Flow Air Changes per Hour {1/hr}
  ;                                       !- Outdoor Air Flow Rate Fraction Schedule Name

OS:People:Definition,
  {3c236d4f-ba27-45ee-8967-26562f04a5af}, !- Handle
  90.1-2007 - Retail - Back_Space People Definition, !- Name
  People/Area,                            !- Number of People Calculation Method
  ,                                       !- Number of People {people}
  0.0358438216876434,                     !- People per Space Floor Area {person/m2}
  ,                                       !- Space Floor Area per Person {m2/person}
  0.3;                                    !- Fraction Radiant

OS:People,
  {46672bf2-3f77-41a2-b380-851bbb5fc739}, !- Handle
  90.1-2007 - Retail - Back_Space People, !- Name
  {3c236d4f-ba27-45ee-8967-26562f04a5af}, !- People Definition Name
  {d5fd9f26-fe84-4917-a95b-20dbacb1086e}; !- Space or SpaceType Name

OS:Schedule:Ruleset,
  {fdd82b0b-71e3-4e6b-94ae-a803bd1057e4}, ! Handle
  Retail Bldg Occ,                        ! Name
  {420e2add-007f-4755-9dbd-4fcbb09c3045}, ! Schedule Type Limits Name
  {f31136e4-e64a-4bbe-80b0-86c1b18e44b9}, ! Default Day Schedule Name
  {6e93a9e3-9ddc-46f6-98c9-d38d27daa186}, ! Summer Design Day Schedule Name
  {bc104794-3723-4728-964e-2b2b2eed2ea8}; ! Winter Design Day Schedule Name

OS:Schedule:Day,
  {f31136e4-e64a-4bbe-80b0-86c1b18e44b9}, ! Handle
  Retail Bldg Occ Default Schedule,       ! Name
  {420e2add-007f-4755-9dbd-4fcbb09c3045}, ! Schedule Type Limits Name
  ,                                       ! Interpolate to Timestep
  7,                                      !- Hour 1
  0,                                      !- Minute 1
  0,                                      !- Value Until Time 1
  8,                                      !- Hour 2
  0,                                      !- Minute 2
  0.1,                                    !- Value Until Time 2
  9,                                      !- Hour 3
  0,                                      !- Minute 3
  0.2,                                    !- Value Until Time 3
  11,                                     !- Hour 4
  0,                                      !- Minute 4
  0.5,                                    !- Value Until Time 4
  15,                                     !- Hour 5
  0,                                      !- Minute 5
  0.7,                                    !- Value Until Time 5
  16,                                     !- Hour 6
  0,                                      !- Minute 6
  0.8,                                    !- Value Until Time 6
  17,                                     !- Hour 7
  0,                                      !- Minute 7
  0.7,                                    !- Value Until Time 7
  19,                                     !- Hour 8
  0,                                      !- Minute 8
  0.5,                                    !- Value Until Time 8
  21,                                     !- Hour 9
  0,                                      !- Minute 9
  0.3,                                    !- Value Until Time 9
  24,                                     !- Hour 10
  0,                                      !- Minute 10
  0;                                      !- Value Until Time 10

OS:Schedule:Day,
  {6e93a9e3-9ddc-46f6-98c9-d38d27daa186}, ! Handle
  Retail Bldg Occ Summer Design Day,      ! Name
  {420e2add-007f-4755-9dbd-4fcbb09c3045}, ! Schedule Type Limits Name
  ,                                       ! Interpolate to Timestep
  24,                                     ! Hour 1
  0,                                      ! Minute 1
  1;                                      ! Value Until Time 1

OS:Schedule:Day,
  {bc104794-3723-4728-964e-2b2b2eed2ea8}, ! Handle
  Retail Bldg Occ Winter Design Day,      ! Name
  {420e2add-007f-4755-9dbd-4fcbb09c3045}, ! Schedule Type Limits Name
  ,                                       ! Interpolate to Timestep
  24,                                     ! Hour 1
  0,                                      ! Minute 1
  1;                                      ! Value Until Time 1

OS:Schedule:Rule,
  {bed6263c-304d-445b-90fa-cdb9db2a0ce8}, ! Handle
  Retail Bldg Occ Rule 1,                 ! Name
  {fdd82b0b-71e3-4e6b-94ae-a803bd1057e4}, ! Schedule Ruleset Name
  0,                                      ! Rule Order
  {572ef2b4-5682-47dd-aeb7-6b28884a6598}, ! Day Schedule Name
  Yes,                                    ! Apply Sunday
  No,                                     ! Apply Monday
  No,                                     ! Apply Tuesday
  No,                                     ! Apply Wednesday
  No,                                     ! Apply Thursday
  No,                                     ! Apply Friday
  No,                                     ! Apply Saturday
  ,                                       ! Apply Holiday
  DateRange,                              ! Date Specification Type
  1,                                      ! Start Month
  1,                                      ! Start Day
  12,                                     ! End Month
  31;                                     ! End Day

OS:Schedule:Day,
  {572ef2b4-5682-47dd-aeb7-6b28884a6598}, ! Handle
  Retail Bldg Occ Rule 1 Day Schedule,    ! Name
  {420e2add-007f-4755-9dbd-4fcbb09c3045}, ! Schedule Type Limits Name
  ,                                       ! Interpolate to Timestep
  9,                                      ! Hour 1
  0,                                      ! Minute 1
  0,                                      ! Value Until Time 1
  10,                                     ! Hour 2
  0,                                      ! Minute 2
  0.10000000000000001,                    ! Value Until Time 2
  12,                                     ! Hour 3
  0,                                      ! Minute 3
  0.20000000000000001,                    ! Value Until Time 3
  17,                                     ! Hour 4
  0,                                      ! Minute 4
  0.40000000000000002,                    ! Value Until Time 4
  18,                                     ! Hour 5
  0,                                      ! Minute 5
  0.20000000000000001,                    ! Value Until Time 5
  19,                                     ! Hour 6
  0,                                      ! Minute 6
  0.10000000000000001,                    ! Value Until Time 6
  24,                                     ! Hour 7
  0,                                      ! Minute 7
  0;                                      ! Value Until Time 7

OS:Schedule:Rule,
  {36dedba9-2e80-4d02-8c29-da47d197c909}, ! Handle
  Retail Bldg Occ Rule 2,                 ! Name
  {fdd82b0b-71e3-4e6b-94ae-a803bd1057e4}, ! Schedule Ruleset Name
  1,                                      ! Rule Order
  {f458762a-6ceb-4909-a96a-be67100fa196}, ! Day Schedule Name
  No,                                     ! Apply Sunday
  No,                                     ! Apply Monday
  No,                                     ! Apply Tuesday
  No,                                     ! Apply Wednesday
  No,                                     ! Apply Thursday
  No,                                     ! Apply Friday
  Yes,                                    ! Apply Saturday
  ,                                       ! Apply Holiday
  DateRange,                              ! Date Specification Type
  1,                                      ! Start Month
  1,                                      ! Start Day
  12,                                     ! End Month
  31;                                     ! End Day

OS:Schedule:Day,
  {f458762a-6ceb-4909-a96a-be67100fa196}, ! Handle
  Retail Bldg Occ Rule 2 Day Schedule,    ! Name
  {420e2add-007f-4755-9dbd-4fcbb09c3045}, ! Schedule Type Limits Name
  ,                                       ! Interpolate to Timestep
  7,                                      ! Hour 1
  0,                                      ! Minute 1
  0,                                      ! Value Until Time 1
  8,                                      ! Hour 2
  0,                                      ! Minute 2
  0.10000000000000001,                    ! Value Until Time 2
  9,                                      ! Hour 3
  0,                                      ! Minute 3
  0.20000000000000001,                    ! Value Until Time 3
  10,                                     ! Hour 4
  0,                                      ! Minute 4
  0.5,                                    ! Value Until Time 4
  11,                                     ! Hour 5
  0,                                      ! Minute 5
  0.59999999999999998,                    ! Value Until Time 5
  17,                                     ! Hour 6
  0,                                      ! Minute 6
  0.80000000000000004,                    ! Value Until Time 6
  18,                                     ! Hour 7
  0,                                      ! Minute 7
  0.59999999999999998,                    ! Value Until Time 7
  21,                                     ! Hour 8
  0,                                      ! Minute 8
  0.20000000000000001,                    ! Value Until Time 8
  22,                                     ! Hour 9
  0,                                      ! Minute 9
  0.10000000000000001,                    ! Value Until Time 9
  24,                                     ! Hour 10
  0,                                      ! Minute 10
  0;                                      ! Value Until Time 10

OS:Schedule:Ruleset,
  {e6ac9273-d5f0-4e44-b785-2f76a7b956d8}, ! Handle
  Retail Activity,                        ! Name
  {bf0d9244-3ae0-4366-8a80-e40cf0c3080b}, ! Schedule Type Limits Name
  {5b93d1d5-6d78-494a-8cab-4285f4b5215b}, ! Default Day Schedule Name
  {8d85e431-1d65-49b1-8016-3fa5d003b6eb}, ! Summer Design Day Schedule Name
  {280f73b2-49b0-47e9-ab96-12fc68343e29}; ! Winter Design Day Schedule Name

OS:ScheduleTypeLimits,
  {bf0d9244-3ae0-4366-8a80-e40cf0c3080b}, !- Handle
  ActivityLevel 11,                       !- Name
  0,                                      !- Lower Limit Value {BasedOnField A4}
  ,                                       !- Upper Limit Value {BasedOnField A4}
  Continuous,                             !- Numeric Type
  ActivityLevel;                          !- Unit Type

OS:Schedule:Day,
  {5b93d1d5-6d78-494a-8cab-4285f4b5215b}, ! Handle
  Retail Activity Default Schedule,       ! Name
  {bf0d9244-3ae0-4366-8a80-e40cf0c3080b}, ! Schedule Type Limits Name
  ,                                       ! Interpolate to Timestep
  24,                                     !- Hour 1
  0,                                      !- Minute 1
  120;                                    !- Value Until Time 1

OS:Schedule:Day,
  {8d85e431-1d65-49b1-8016-3fa5d003b6eb}, ! Handle
  Retail Activity Summer Design Day,      ! Name
  {bf0d9244-3ae0-4366-8a80-e40cf0c3080b}, ! Schedule Type Limits Name
  ,                                       ! Interpolate to Timestep
  24,                                     ! Hour 1
  0,                                      ! Minute 1
  120;                                    ! Value Until Time 1

OS:Schedule:Day,
  {280f73b2-49b0-47e9-ab96-12fc68343e29}, ! Handle
  Retail Activity Winter Design Day,      ! Name
  {bf0d9244-3ae0-4366-8a80-e40cf0c3080b}, ! Schedule Type Limits Name
  ,                                       ! Interpolate to Timestep
  24,                                     ! Hour 1
  0,                                      ! Minute 1
  120;                                    ! Value Until Time 1

OS:SpaceInfiltration:DesignFlowRate,
  {2d7b9cac-8222-4327-80e4-4df9d1a6339a}, !- Handle
  90.1-2007 - Retail - Back_Space Infiltration, !- Name
  {d5fd9f26-fe84-4917-a95b-20dbacb1086e}, !- Space or SpaceType Name
  ,                                       !- Schedule Name
  Flow/ExteriorArea,                      !- Design Flow Rate Calculation Method
  ,                                       !- Design Flow Rate {m3/s}
  ,                                       !- Flow per Space Floor Area {m3/s-m2}
  0.000226568,                            !- Flow per Exterior Surface Area {m3/s-m2}
  ,                                       !- Air Changes per Hour {1/hr}
  ,                                       !- Constant Term Coefficient
  ,                                       !- Temperature Term Coefficient
  ,                                       !- Velocity Term Coefficient
  ;                                       !- Velocity Squared Term Coefficient

OS:Schedule:Ruleset,
  {687b041f-0dcb-48ae-9c02-c767b1b4529c}, ! Handle
  Retail Infil Half On,                   ! Name
  {420e2add-007f-4755-9dbd-4fcbb09c3045}, ! Schedule Type Limits Name
  {ecaf3b75-8185-4286-a447-9dcf27b2b45b}, ! Default Day Schedule Name
  {b2752939-3185-4f08-8e5b-64b8b614e064}, ! Summer Design Day Schedule Name
  {c5a9b87a-1a75-44fe-996e-4f0704e67aa7}; ! Winter Design Day Schedule Name

OS:Schedule:Day,
  {ecaf3b75-8185-4286-a447-9dcf27b2b45b}, ! Handle
  Retail Infil Half On Default Schedule,  ! Name
  {420e2add-007f-4755-9dbd-4fcbb09c3045}, ! Schedule Type Limits Name
  ,                                       ! Interpolate to Timestep